=
     RDKit          3D

 35 36  0  0  0  0  0  0  0  0999 V2000
   20.1220   17.1180    4.5780 C   0  0  2  0  0  0  0  0  0  0  0  0
   20.9030   15.9930    5.2590 C   0  0  0  0  0  0  0  0  0  0  0  0
   20.0210   15.1190    6.1620 C   0  0  0  0  0  0  0  0  0  0  0  0
   18.5250   15.1980    5.8690 C   0  0  0  0  0  0  0  0  0  0  0  0
   18.2930   15.3170    4.3930 N   0  0  1  0  0  4  0  0  0  0  0  0
   18.9400   16.5300    3.7430 C   0  0  0  0  0  0  0  0  0  0  0  0
   22.1480   18.6740    4.4830 C   0  0  0  0  0  0  0  0  0  0  0  0
   21.0890   17.9220    3.7390 N   0  0  0  0  0  4  0  0  0  0  0  0
   18.5130   13.9930    3.6270 C   0  0  0  0  0  0  0  0  0  0  0  0
   17.2220   13.3340    3.2830 C   0  0  0  0  0  0  0  0  0  0  0  0
   17.1420   12.1880    2.6090 N   0  0  0  0  0  0  0  0  0  0  0  0
   15.7620   11.9770    2.5130 O   0  0  0  0  0  0  0  0  0  0  0  0
   15.1610   13.0530    3.1060 C   0  0  0  0  0  0  0  0  0  0  0  0
   16.0220   13.9490    3.5510 N   0  0  0  0  0  0  0  0  0  0  0  0
   13.6850   13.0450    3.1400 C   0  0  0  0  0  0  0  0  0  0  0  0
   19.6673   17.7882    5.3223 H   0  0  0  0  0  0  0  0  0  0  0  0
   21.3510   15.3559    4.4822 H   0  0  0  0  0  0  0  0  0  0  0  0
   21.6691   16.4597    5.8956 H   0  0  0  0  0  0  0  0  0  0  0  0
   20.3383   14.0728    6.0405 H   0  0  0  0  0  0  0  0  0  0  0  0
   20.1556   15.4984    7.1857 H   0  0  0  0  0  0  0  0  0  0  0  0
   18.0330   14.2877    6.2421 H   0  0  0  0  0  0  0  0  0  0  0  0
   18.1069   16.0830    6.3709 H   0  0  0  0  0  0  0  0  0  0  0  0
   17.2849   15.5102    4.3070 H   0  0  0  0  0  0  0  0  0  0  0  0
   19.3228   16.2347    2.7549 H   0  0  0  0  0  0  0  0  0  0  0  0
   18.1698   17.3121    3.6707 H   0  0  0  0  0  0  0  0  0  0  0  0
   21.9871   18.5598    5.5652 H   0  0  0  0  0  0  0  0  0  0  0  0
   23.1376   18.2751    4.2153 H   0  0  0  0  0  0  0  0  0  0  0  0
   22.0976   19.7397    4.2153 H   0  0  0  0  0  0  0  0  0  0  0  0
   21.5605   17.2717    3.0943 H   0  0  0  0  0  0  0  0  0  0  0  0
   20.5166   18.6417    3.2750 H   0  0  0  0  0  0  0  0  0  0  0  0
   19.0632   14.2056    2.6985 H   0  0  0  0  0  0  0  0  0  0  0  0
   19.0831   13.3121    4.2761 H   0  0  0  0  0  0  0  0  0  0  0  0
   13.3423   13.0431    4.1853 H   0  0  0  0  0  0  0  0  0  0  0  0
   13.3016   13.9411    2.6300 H   0  0  0  0  0  0  0  0  0  0  0  0
   13.3114   12.1448    2.6300 H   0  0  0  0  0  0  0  0  0  0  0  0
  2  1  1  0
  3  2  1  0
  4  3  1  0
  5  4  1  0
  6  5  1  0
  6  1  1  0
  8  1  1  0
  8  7  1  0
  9  5  1  0
 10  9  1  0
 11 10  2  0
 12 11  1  0
 13 12  1  0
 14 13  2  0
 14 10  1  0
 15 13  1  0
  1 16  1  1
  2 17  1  0
  2 18  1  0
  3 19  1  0
  3 20  1  0
  4 21  1  0
  4 22  1  0
  5 23  1  1
  6 24  1  0
  6 25  1  0
  7 26  1  0
  7 27  1  0
  7 28  1  0
  8 29  1  0
  8 30  1  0
  9 31  1  0
  9 32  1  0
 15 33  1  0
 15 34  1  0
 15 35  1  0
M  CHG  2   5   1   8   1
M  END
$$$$
=
     RDKit          3D

 46 48  0  0  0  0  0  0  0  0999 V2000
   17.6860   15.7700    3.0380 O   0  0  0  0  0  0  0  0  0  0  0  0
   17.9890   14.7090    3.5850 C   0  0  0  0  0  0  0  0  0  0  0  0
   17.2250   13.5690    3.5950 N   0  0  0  0  0  0  0  0  0  0  0  0
   15.8500   13.6370    3.6660 C   0  0  0  0  0  0  0  0  0  0  0  0
   15.0850   12.4260    2.7600 S   0  0  0  0  0  0  0  0  0  0  0  0
   13.5500   13.0190    3.1710 C   0  0  0  0  0  0  0  0  0  0  0  0
   13.6060   14.0860    4.0540 C   0  0  0  0  0  0  0  0  0  0  0  0
   14.9760   14.4550    4.3680 C   0  0  0  0  0  0  0  0  0  0  0  0
   12.3440   14.6990    4.6020 C   0  0  0  0  0  0  0  0  0  0  0  0
   11.1190   13.7940    4.3950 C   0  0  0  0  0  0  0  0  0  0  0  0
   11.0710   13.2330    2.9700 C   0  0  0  0  0  0  0  0  0  0  0  0
   12.2980   12.3640    2.6670 C   0  0  0  0  0  0  0  0  0  0  0  0
   15.4110   15.4590    5.3440 C   0  0  0  0  0  0  0  0  0  0  0  0
   15.7330   15.1880    6.5060 O   0  0  0  0  0  0  0  0  0  0  0  0
   15.4800   16.7400    4.8820 N   0  0  0  0  0  0  0  0  0  0  0  0
   19.1930   14.6620    4.5160 C   0  0  0  0  0  0  0  0  0  0  0  0
   18.8230   15.4100    5.7720 N   0  0  0  0  0  4  0  0  0  0  0  0
   18.9260   16.8830    5.7380 C   0  0  0  0  0  0  0  0  0  0  0  0
   20.3020   17.3620    5.3700 C   0  0  0  0  0  0  0  0  0  0  0  0
   21.3900   17.1200    6.2230 C   0  0  0  0  0  0  0  0  0  0  0  0
   22.6610   17.5960    5.8970 C   0  0  0  0  0  0  0  0  0  0  0  0
   22.8580   18.3150    4.7200 C   0  0  0  0  0  0  0  0  0  0  0  0
   21.7850   18.5570    3.8650 C   0  0  0  0  0  0  0  0  0  0  0  0
   20.5120   18.0850    4.1870 C   0  0  0  0  0  0  0  0  0  0  0  0
   17.6858   12.6490    3.5488 H   0  0  0  0  0  0  0  0  0  0  0  0
   12.4754   14.8756    5.6798 H   0  0  0  0  0  0  0  0  0  0  0  0
   12.1635   15.6392    4.0603 H   0  0  0  0  0  0  0  0  0  0  0  0
   11.1681   12.9572    5.1073 H   0  0  0  0  0  0  0  0  0  0  0  0
   10.2130   14.3956    4.5603 H   0  0  0  0  0  0  0  0  0  0  0  0
   10.1633   12.6220    2.8567 H   0  0  0  0  0  0  0  0  0  0  0  0
   11.0641   14.0783    2.2661 H   0  0  0  0  0  0  0  0  0  0  0  0
   12.1787   11.3871    3.1584 H   0  0  0  0  0  0  0  0  0  0  0  0
   12.3801   12.2361    1.5776 H   0  0  0  0  0  0  0  0  0  0  0  0
   15.7779   17.4991    5.5112 H   0  0  0  0  0  0  0  0  0  0  0  0
   15.2342   16.9486    3.9038 H   0  0  0  0  0  0  0  0  0  0  0  0
   19.4393   13.6179    4.7593 H   0  0  0  0  0  0  0  0  0  0  0  0
   20.0716   15.1189    4.0371 H   0  0  0  0  0  0  0  0  0  0  0  0
   17.8461   15.1732    5.9968 H   0  0  0  0  0  0  0  0  0  0  0  0
   19.5178   15.1123    6.4716 H   0  0  0  0  0  0  0  0  0  0  0  0
   18.2099   17.2684    4.9973 H   0  0  0  0  0  0  0  0  0  0  0  0
   18.7057   17.2539    6.7499 H   0  0  0  0  0  0  0  0  0  0  0  0
   21.2403   16.5523    7.1532 H   0  0  0  0  0  0  0  0  0  0  0  0
   23.5088   17.4031    6.5707 H   0  0  0  0  0  0  0  0  0  0  0  0
   23.8599   18.6913    4.4660 H   0  0  0  0  0  0  0  0  0  0  0  0
   21.9417   19.1215    2.9340 H   0  0  0  0  0  0  0  0  0  0  0  0
   19.6683   18.2812    3.5089 H   0  0  0  0  0  0  0  0  0  0  0  0
  2  1  2  0
  3  2  1  0
  4  3  1  0
  5  4  1  0
  6  5  1  0
  7  6  2  0
  8  7  1  0
  8  4  2  0
  9  7  1  0
 10  9  1  0
 11 10  1  0
 12 11  1  0
 12  6  1  0
 13  8  1  0
 14 13  2  0
 15 13  1  0
 16  2  1  0
 17 16  1  0
 18 17  1  0
 19 18  1  0
 20 19  2  0
 21 20  1  0
 22 21  2  0
 23 22  1  0
 24 23  2  0
 24 19  1  0
  3 25  1  0
  9 26  1  0
  9 27  1  0
 10 28  1  0
 10 29  1  0
 11 30  1  0
 11 31  1  0
 12 32  1  0
 12 33  1  0
 15 34  1  0
 15 35  1  0
 16 36  1  0
 16 37  1  0
 17 38  1  0
 17 39  1  0
 18 40  1  0
 18 41  1  0
 20 42  1  0
 21 43  1  0
 22 44  1  0
 23 45  1  0
 24 46  1  0
M  CHG  1  17   1
M  END
$$$$
=
     RDKit          3D

 33 33  0  0  0  0  0  0  0  0999 V2000
   18.7310   15.6370    5.6140 C   0  0  2  0  0  0  0  0  0  0  0  0
   17.3460   15.5200    5.0020 C   0  0  0  0  0  0  0  0  0  0  0  0
   16.2520   16.3280    5.3170 C   0  0  0  0  0  0  0  0  0  0  0  0
   15.0100   16.1140    4.7130 C   0  0  0  0  0  0  0  0  0  0  0  0
   14.8500   15.1130    3.7570 C   0  0  0  0  0  0  0  0  0  0  0  0
   15.9400   14.3470    3.3530 C   0  0  0  0  0  0  0  0  0  0  0  0
   17.1610   14.5290    4.0100 C   0  0  0  0  0  0  0  0  0  0  0  0
   15.7640   13.2720    2.4760 N   0  0  0  0  0  0  0  0  0  0  0  0
   19.8030   16.6650    5.1670 C   0  0  2  0  0  0  0  0  0  0  0  0
   19.2310   18.5230    5.6930 Br  0  0  0  0  0  0  0  0  0  0  0  0
   19.8670   16.7420    3.6240 C   0  0  0  0  0  0  0  0  0  0  0  0
   21.4730   16.3140    5.8340 S   0  0  0  0  0  6  0  0  0  0  0  0
   21.3340   15.8370    7.2010 O   0  0  0  0  0  0  0  0  0  0  0  0
   22.1950   15.4810    4.8890 O   0  0  0  0  0  0  0  0  0  0  0  0
   22.9400   18.3400    4.6080 C   0  0  0  0  0  0  0  0  0  0  0  0
   22.3920   17.8460    5.9290 C   0  0  0  0  0  0  0  0  0  0  0  0
   19.2920   14.3090    5.6250 O   0  0  0  0  0  0  0  0  0  0  0  0
   18.4936   16.1102    6.5782 H   0  0  0  0  0  0  0  0  0  0  0  0
   16.3688   17.1415    6.0482 H   0  0  0  0  0  0  0  0  0  0  0  0
   14.1514   16.7412    4.9947 H   0  0  0  0  0  0  0  0  0  0  0  0
   13.8580   14.9272    3.3195 H   0  0  0  0  0  0  0  0  0  0  0  0
   18.0076   13.8783    3.7459 H   0  0  0  0  0  0  0  0  0  0  0  0
   16.5751   12.7096    2.1814 H   0  0  0  0  0  0  0  0  0  0  0  0
   14.8233   13.0426    2.1247 H   0  0  0  0  0  0  0  0  0  0  0  0
   20.5437   17.5561    3.3253 H   0  0  0  0  0  0  0  0  0  0  0  0
   20.2421   15.7882    3.2245 H   0  0  0  0  0  0  0  0  0  0  0  0
   18.8607   16.9364    3.2245 H   0  0  0  0  0  0  0  0  0  0  0  0
   23.7453   19.0660    4.7936 H   0  0  0  0  0  0  0  0  0  0  0  0
   23.3379   17.4895    4.0350 H   0  0  0  0  0  0  0  0  0  0  0  0
   22.1352   18.8237    4.0350 H   0  0  0  0  0  0  0  0  0  0  0  0
   21.7245   18.6209    6.3339 H   0  0  0  0  0  0  0  0  0  0  0  0
   23.2631   17.6454    6.5701 H   0  0  0  0  0  0  0  0  0  0  0  0
   19.4176   14.0116    6.5609 H   0  0  0  0  0  0  0  0  0  0  0  0
  2  1  1  0
  3  2  2  0
  4  3  1  0
  5  4  2  0
  6  5  1  0
  7  6  2  0
  7  2  1  0
  8  6  1  0
  9  1  1  0
  9 10  1  1
 11  9  1  0
 12  9  1  0
 13 12  2  0
 14 12  2  0
 16 12  1  0
 16 15  1  0
 17  1  1  0
  1 18  1  1
  3 19  1  0
  4 20  1  0
  5 21  1  0
  7 22  1  0
  8 23  1  0
  8 24  1  0
 11 25  1  0
 11 26  1  0
 11 27  1  0
 15 28  1  0
 15 29  1  0
 15 30  1  0
 16 31  1  0
 16 32  1  0
 17 33  1  0
M  END
$$$$
=
     RDKit          3D

 27 28  0  0  0  0  0  0  0  0999 V2000
   18.4630   15.9090    3.9670 C   0  0  0  0  0  0  0  0  0  0  0  0
   20.0020   15.8680    3.9920 C   0  0  0  0  0  0  0  0  0  0  0  0
   20.5880   15.3940    5.3200 C   0  0  0  0  0  0  0  0  0  0  0  0
   19.5830   14.6200    6.0870 N   0  0  0  0  0  4  0  0  0  0  0  0
   18.3650   15.3900    6.4690 C   0  0  0  0  0  0  0  0  0  0  0  0
   17.9260   16.3230    5.3420 C   0  0  0  0  0  0  0  0  0  0  0  0
   15.2430   12.3310    2.7510 C   0  0  0  0  0  0  0  0  0  0  0  0
   16.4560   13.1330    3.0300 C   0  0  0  0  0  0  0  0  0  0  0  0
   17.7190   12.6170    2.9180 N   0  0  0  0  0  0  0  0  0  0  0  0
   18.6440   13.5430    3.2190 N   0  0  0  0  0  0  0  0  0  0  0  0
   17.8910   14.5930    3.5370 C   0  0  0  0  0  0  0  0  0  0  0  0
   16.5330   14.3940    3.4110 N   0  0  0  0  0  0  0  0  0  0  0  0
   18.1471   16.6594    3.2273 H   0  0  0  0  0  0  0  0  0  0  0  0
   20.3430   15.1852    3.1999 H   0  0  0  0  0  0  0  0  0  0  0  0
   20.3509   16.9001    3.8399 H   0  0  0  0  0  0  0  0  0  0  0  0
   21.4619   14.7558    5.1223 H   0  0  0  0  0  0  0  0  0  0  0  0
   20.8848   16.2732    5.9107 H   0  0  0  0  0  0  0  0  0  0  0  0
   19.2885   13.8177    5.5121 H   0  0  0  0  0  0  0  0  0  0  0  0
   20.0395   14.3410    6.9671 H   0  0  0  0  0  0  0  0  0  0  0  0
   17.5496   14.6855    6.6898 H   0  0  0  0  0  0  0  0  0  0  0  0
   18.6011   15.9993    7.3539 H   0  0  0  0  0  0  0  0  0  0  0  0
   18.2882   17.3369    5.5673 H   0  0  0  0  0  0  0  0  0  0  0  0
   16.8282   16.2765    5.2901 H   0  0  0  0  0  0  0  0  0  0  0  0
   14.7796   12.0246    3.7004 H   0  0  0  0  0  0  0  0  0  0  0  0
   14.5288   12.9355    2.1727 H   0  0  0  0  0  0  0  0  0  0  0  0
   15.5195   11.4371    2.1727 H   0  0  0  0  0  0  0  0  0  0  0  0
   17.9315   11.6482    2.6401 H   0  0  0  0  0  0  0  0  0  0  0  0
  2  1  1  0
  3  2  1  0
  4  3  1  0
  5  4  1  0
  6  1  1  0
  6  5  1  0
  8  7  1  0
  9  8  1  0
 10  9  1  0
 11 10  2  0
 11  1  1  0
 12 11  1  0
 12  8  2  0
  1 13  1  0
  2 14  1  0
  2 15  1  0
  3 16  1  0
  3 17  1  0
  4 18  1  0
  4 19  1  0
  5 20  1  0
  5 21  1  0
  6 22  1  0
  6 23  1  0
  7 24  1  0
  7 25  1  0
  7 26  1  0
  9 27  1  0
M  CHG  1   4   1
M  END
$$$$
=
     RDKit          3D

 32 33  0  0  0  0  0  0  0  0999 V2000
   18.8860   14.3620    4.4820 C   0  0  0  0  0  0  0  0  0  0  0  0
   19.9910   15.1330    3.8150 N   0  0  0  0  0  4  0  0  0  0  0  0
   19.8710   16.6200    3.7910 C   0  0  0  0  0  0  0  0  0  0  0  0
   21.0420   17.3060    4.4080 C   0  0  0  0  0  0  0  0  0  0  0  0
   21.7570   18.3880    3.9320 C   0  0  0  0  0  0  0  0  0  0  0  0
   22.8190   18.7580    4.8080 C   0  0  0  0  0  0  0  0  0  0  0  0
   22.8780   17.9520    5.9220 C   0  0  0  0  0  0  0  0  0  0  0  0
   21.6580   16.7570    5.9130 S   0  0  0  0  0  0  0  0  0  0  0  0
   17.8870   13.8500    3.4430 C   0  0  0  0  0  0  0  0  0  0  0  0
   16.8030   14.7840    3.4150 O   0  0  0  0  0  0  0  0  0  0  0  0
   15.5390   14.2670    3.5050 C   0  0  0  0  0  0  0  0  0  0  0  0
   14.6270   15.0710    4.1930 C   0  0  0  0  0  0  0  0  0  0  0  0
   13.3010   14.6660    4.3520 C   0  0  0  0  0  0  0  0  0  0  0  0
   12.8800   13.4500    3.8220 C   0  0  0  0  0  0  0  0  0  0  0  0
   13.7850   12.6400    3.1390 C   0  0  0  0  0  0  0  0  0  0  0  0
   15.1140   13.0450    2.9800 C   0  0  0  0  0  0  0  0  0  0  0  0
   19.3168   13.5062    5.0224 H   0  0  0  0  0  0  0  0  0  0  0  0
   18.3607   15.0275    5.1828 H   0  0  0  0  0  0  0  0  0  0  0  0
   20.8680   14.9013    4.3030 H   0  0  0  0  0  0  0  0  0  0  0  0
   19.9515   14.8489    2.8258 H   0  0  0  0  0  0  0  0  0  0  0  0
   19.7829   16.9483    2.7448 H   0  0  0  0  0  0  0  0  0  0  0  0
   18.9821   16.8892    4.3804 H   0  0  0  0  0  0  0  0  0  0  0  0
   21.5329   18.9041    2.9868 H   0  0  0  0  0  0  0  0  0  0  0  0
   23.5111   19.5911    4.6159 H   0  0  0  0  0  0  0  0  0  0  0  0
   23.6230   18.0642    6.7235 H   0  0  0  0  0  0  0  0  0  0  0  0
   18.3647   13.7947    2.4537 H   0  0  0  0  0  0  0  0  0  0  0  0
   17.5319   12.8414    3.7010 H   0  0  0  0  0  0  0  0  0  0  0  0
   14.9572   16.0324    4.6134 H   0  0  0  0  0  0  0  0  0  0  0  0
   12.5903   15.3064    4.8949 H   0  0  0  0  0  0  0  0  0  0  0  0
   11.8348   13.1289    3.9420 H   0  0  0  0  0  0  0  0  0  0  0  0
   13.4525   11.6775    2.7230 H   0  0  0  0  0  0  0  0  0  0  0  0
   15.8246   12.4009    2.4413 H   0  0  0  0  0  0  0  0  0  0  0  0
  2  1  1  0
  3  2  1  0
  4  3  1  0
  5  4  2  0
  6  5  1  0
  7  6  2  0
  8  4  1  0
  8  7  1  0
  9  1  1  0
 10  9  1  0
 11 10  1  0
 12 11  2  0
 13 12  1  0
 14 13  2  0
 15 14  1  0
 16 15  2  0
 16 11  1  0
  1 17  1  0
  1 18  1  0
  2 19  1  0
  2 20  1  0
  3 21  1  0
  3 22  1  0
  5 23  1  0
  6 24  1  0
  7 25  1  0
  9 26  1  0
  9 27  1  0
 12 28  1  0
 13 29  1  0
 14 30  1  0
 15 31  1  0
 16 32  1  0
M  CHG  1   2   1
M  END
$$$$
=
     RDKit          3D

 30 30  0  0  0  0  0  0  0  0999 V2000
   20.8160   16.9860    5.4510 N   0  0  1  0  0  4  0  0  0  0  0  0
   20.0570   17.7230    4.3360 C   0  0  0  0  0  0  0  0  0  0  0  0
   20.0660   16.9270    3.0030 C   0  0  2  0  0  0  0  0  0  0  0  0
   19.3120   17.6550    1.9010 C   0  0  0  0  0  0  0  0  0  0  0  0
   19.4450   15.5510    3.1780 N   0  0  0  0  0  4  0  0  0  0  0  0
   19.4410   14.9960    4.5840 C   0  0  0  0  0  0  0  0  0  0  0  0
   20.6930   15.4410    5.3900 C   0  0  2  0  0  0  0  0  0  0  0  0
   20.6350   14.9000    6.8150 C   0  0  0  0  0  0  0  0  0  0  0  0
   22.5150   18.6940    4.7640 C   0  0  0  0  0  0  0  0  0  0  0  0
   22.2780   17.4350    5.5790 C   0  0  0  0  0  0  0  0  0  0  0  0
   20.3343   17.2704    6.3159 H   0  0  0  0  0  0  0  0  0  0  0  0
   19.0145   17.8715    4.6541 H   0  0  0  0  0  0  0  0  0  0  0  0
   20.5601   18.6854    4.1608 H   0  0  0  0  0  0  0  0  0  0  0  0
   21.1226   16.8272    2.7138 H   0  0  0  0  0  0  0  0  0  0  0  0
   18.5896   18.3525    2.3500 H   0  0  0  0  0  0  0  0  0  0  0  0
   20.0244   18.2157    1.2779 H   0  0  0  0  0  0  0  0  0  0  0  0
   18.7767   16.9234    1.2779 H   0  0  0  0  0  0  0  0  0  0  0  0
   18.4674   15.6042    2.8581 H   0  0  0  0  0  0  0  0  0  0  0  0
   20.0356   14.9096    2.6296 H   0  0  0  0  0  0  0  0  0  0  0  0
   18.5393   15.3521    5.1036 H   0  0  0  0  0  0  0  0  0  0  0  0
   19.4539   13.8982    4.5156 H   0  0  0  0  0  0  0  0  0  0  0  0
   21.5709   15.0332    4.8675 H   0  0  0  0  0  0  0  0  0  0  0  0
   20.7243   15.7333    7.5275 H   0  0  0  0  0  0  0  0  0  0  0  0
   19.6764   14.3840    6.9726 H   0  0  0  0  0  0  0  0  0  0  0  0
   21.4624   14.1925    6.9726 H   0  0  0  0  0  0  0  0  0  0  0  0
   22.6752   19.5451    5.4422 H   0  0  0  0  0  0  0  0  0  0  0  0
   23.4034   18.5584    4.1297 H   0  0  0  0  0  0  0  0  0  0  0  0
   21.6381   18.8907    4.1297 H   0  0  0  0  0  0  0  0  0  0  0  0
   22.5039   17.6389    6.6361 H   0  0  0  0  0  0  0  0  0  0  0  0
   22.9326   16.6355    5.2016 H   0  0  0  0  0  0  0  0  0  0  0  0
  2  1  1  0
  3  2  1  0
  4  3  1  0
  5  3  1  0
  6  5  1  0
  7  6  1  0
  7  1  1  0
  8  7  1  0
 10  1  1  0
 10  9  1  0
  1 11  1  1
  2 12  1  0
  2 13  1  0
  3 14  1  6
  4 15  1  0
  4 16  1  0
  4 17  1  0
  5 18  1  0
  5 19  1  0
  6 20  1  0
  6 21  1  0
  7 22  1  6
  8 23  1  0
  8 24  1  0
  8 25  1  0
  9 26  1  0
  9 27  1  0
  9 28  1  0
 10 29  1  0
 10 30  1  0
M  CHG  2   1   1   5   1
M  END
$$$$
=
     RDKit          3D

 37 37  0  0  0  0  0  0  0  0999 V2000
   17.0810   15.6440    5.2400 C   0  0  0  0  0  0  0  0  0  0  0  0
   17.8660   15.4270    6.3830 C   0  0  0  0  0  0  0  0  0  0  0  0
   19.2570   15.3720    6.2810 C   0  0  0  0  0  0  0  0  0  0  0  0
   19.8790   15.5250    5.0400 C   0  0  0  0  0  0  0  0  0  0  0  0
   19.1150   15.7980    3.9030 C   0  0  0  0  0  0  0  0  0  0  0  0
   17.7210   15.8270    4.0030 C   0  0  0  0  0  0  0  0  0  0  0  0
   19.6060   15.9960    2.6410 O   0  0  0  0  0  0  0  0  0  0  0  0
   19.6010   17.3610    2.2190 C   0  0  0  0  0  0  0  0  0  0  0  0
   15.5850   15.6590    5.3300 C   0  0  0  0  0  0  0  0  0  0  0  0
   14.8960   15.3740    4.0360 N   0  0  0  0  0  4  0  0  0  0  0  0
   14.0680   14.1370    3.9800 C   0  0  0  0  0  0  0  0  0  0  0  0
   15.8420   12.7700    2.7230 C   0  0  0  0  0  0  0  0  0  0  0  0
   14.7480   12.9020    3.4880 C   0  0  0  0  0  0  0  0  0  0  0  0
   21.2430   15.4360    5.0080 O   0  0  0  0  0  0  0  0  0  0  0  0
   21.8340   16.5180    5.7410 C   0  0  0  0  0  0  0  0  0  0  0  0
   22.4030   17.4750    4.7400 C   0  0  0  0  0  0  0  0  0  0  0  0
   22.0760   18.7720    4.6530 C   0  0  0  0  0  0  0  0  0  0  0  0
   17.3831   15.2998    7.3631 H   0  0  0  0  0  0  0  0  0  0  0  0
   19.8660   15.2074    7.1821 H   0  0  0  0  0  0  0  0  0  0  0  0
   17.1163   15.9956    3.0997 H   0  0  0  0  0  0  0  0  0  0  0  0
   19.5986   18.0176    3.1015 H   0  0  0  0  0  0  0  0  0  0  0  0
   20.4984   17.5614    1.6153 H   0  0  0  0  0  0  0  0  0  0  0  0
   18.7021   17.5549    1.6153 H   0  0  0  0  0  0  0  0  0  0  0  0
   15.2748   14.8987    6.0619 H   0  0  0  0  0  0  0  0  0  0  0  0
   15.2942   16.6771    5.6281 H   0  0  0  0  0  0  0  0  0  0  0  0
   14.2796   16.1724    3.8276 H   0  0  0  0  0  0  0  0  0  0  0  0
   15.6521   15.2261    3.3524 H   0  0  0  0  0  0  0  0  0  0  0  0
   13.7012   13.9340    4.9970 H   0  0  0  0  0  0  0  0  0  0  0  0
   13.2788   14.3480    3.2434 H   0  0  0  0  0  0  0  0  0  0  0  0
   16.2073   11.7679    2.4539 H   0  0  0  0  0  0  0  0  0  0  0  0
   16.3738   13.6638    2.3648 H   0  0  0  0  0  0  0  0  0  0  0  0
   14.2807   11.9565    3.8004 H   0  0  0  0  0  0  0  0  0  0  0  0
   21.0695   17.0215    6.3509 H   0  0  0  0  0  0  0  0  0  0  0  0
   22.6194   16.1479    6.4164 H   0  0  0  0  0  0  0  0  0  0  0  0
   23.1424   17.0858    4.0246 H   0  0  0  0  0  0  0  0  0  0  0  0
   22.5430   19.4067    3.8855 H   0  0  0  0  0  0  0  0  0  0  0  0
   21.3406   19.2017    5.3491 H   0  0  0  0  0  0  0  0  0  0  0  0
  2  1  2  0
  3  2  1  0
  4  3  2  0
  5  4  1  0
  6  5  2  0
  6  1  1  0
  7  5  1  0
  8  7  1  0
  9  1  1  0
 10  9  1  0
 11 10  1  0
 13 12  2  3
 13 11  1  0
 14  4  1  0
 15 14  1  0
 16 15  1  0
 17 16  2  3
  2 18  1  0
  3 19  1  0
  6 20  1  0
  8 21  1  0
  8 22  1  0
  8 23  1  0
  9 24  1  0
  9 25  1  0
 10 26  1  0
 10 27  1  0
 11 28  1  0
 11 29  1  0
 12 30  1  0
 12 31  1  0
 13 32  1  0
 15 33  1  0
 15 34  1  0
 16 35  1  0
 17 36  1  0
 17 37  1  0
M  CHG  1  10   1
M  END
$$$$
=
     RDKit          3D

 37 38  0  0  0  0  0  0  0  0999 V2000
   16.2320   15.7090    4.3580 N   0  0  1  0  0  4  0  0  0  0  0  0
   15.6040   15.4990    5.7450 C   0  0  0  0  0  0  0  0  0  0  0  0
   16.7640   15.5710    6.7230 C   0  0  0  0  0  0  0  0  0  0  0  0
   17.8430   16.3450    5.9900 C   0  0  0  0  0  0  0  0  0  0  0  0
   17.7490   15.8050    4.5590 C   0  0  1  0  0  0  0  0  0  0  0  0
   18.5600   14.4880    4.3800 C   0  0  0  0  0  0  0  0  0  0  0  0
   19.9310   14.9420    3.9330 N   0  0  0  0  0  4  0  0  0  0  0  0
   19.8800   16.4150    3.6370 C   0  0  0  0  0  0  0  0  0  0  0  0
   18.3920   16.7250    3.5240 C   0  0  0  0  0  0  0  0  0  0  0  0
   15.6990   14.7860    3.2780 C   0  0  0  0  0  0  0  0  0  0  0  0
   15.2880   12.2630    3.1900 C   0  0  0  0  0  0  0  0  0  0  0  0
   14.8720   13.6010    3.8070 C   0  0  0  0  0  0  0  0  0  0  0  0
   13.3610   13.7930    3.6980 C   0  0  0  0  0  0  0  0  0  0  0  0
   15.9322   16.6003    3.9377 H   0  0  0  0  0  0  0  0  0  0  0  0
   14.8693   16.2891    5.9593 H   0  0  0  0  0  0  0  0  0  0  0  0
   15.0683   14.5406    5.8127 H   0  0  0  0  0  0  0  0  0  0  0  0
   16.4647   16.0985    7.6407 H   0  0  0  0  0  0  0  0  0  0  0  0
   17.1075   14.5731    7.0331 H   0  0  0  0  0  0  0  0  0  0  0  0
   17.6413   17.4260    6.0179 H   0  0  0  0  0  0  0  0  0  0  0  0
   18.8415   16.2196    6.4341 H   0  0  0  0  0  0  0  0  0  0  0  0
   18.6237   13.9389    5.3310 H   0  0  0  0  0  0  0  0  0  0  0  0
   18.0909   13.8042    3.6573 H   0  0  0  0  0  0  0  0  0  0  0  0
   20.6161   14.7626    4.6809 H   0  0  0  0  0  0  0  0  0  0  0  0
   20.2132   14.4245    3.0883 H   0  0  0  0  0  0  0  0  0  0  0  0
   20.3375   16.9927    4.4537 H   0  0  0  0  0  0  0  0  0  0  0  0
   20.4350   16.6799    2.7249 H   0  0  0  0  0  0  0  0  0  0  0  0
   18.0202   16.4988    2.5138 H   0  0  0  0  0  0  0  0  0  0  0  0
   18.1641   17.7869    3.6986 H   0  0  0  0  0  0  0  0  0  0  0  0
   15.0615   15.3770    2.6040 H   0  0  0  0  0  0  0  0  0  0  0  0
   16.5756   14.3562    2.7711 H   0  0  0  0  0  0  0  0  0  0  0  0
   15.5117   11.5435    3.9914 H   0  0  0  0  0  0  0  0  0  0  0  0
   14.4679   11.8755    2.5677 H   0  0  0  0  0  0  0  0  0  0  0  0
   16.1832   12.4088    2.5677 H   0  0  0  0  0  0  0  0  0  0  0  0
   15.1087   13.5723    4.8808 H   0  0  0  0  0  0  0  0  0  0  0  0
   12.9248   13.8484    4.7063 H   0  0  0  0  0  0  0  0  0  0  0  0
   13.1481   14.7254    3.1546 H   0  0  0  0  0  0  0  0  0  0  0  0
   12.9217   12.9435    3.1546 H   0  0  0  0  0  0  0  0  0  0  0  0
  2  1  1  0
  3  2  1  0
  4  3  1  0
  5  1  1  0
  5  4  1  1
  6  5  1  0
  7  6  1  0
  8  7  1  0
  9  5  1  0
  9  8  1  0
 10  1  1  0
 12 11  1  0
 12 10  1  0
 13 12  1  0
  1 14  1  6
  2 15  1  0
  2 16  1  0
  3 17  1  0
  3 18  1  0
  4 19  1  0
  4 20  1  0
  6 21  1  0
  6 22  1  0
  7 23  1  0
  7 24  1  0
  8 25  1  0
  8 26  1  0
  9 27  1  0
  9 28  1  0
 10 29  1  0
 10 30  1  0
 11 31  1  0
 11 32  1  0
 11 33  1  0
 12 34  1  0
 13 35  1  0
 13 36  1  0
 13 37  1  0
M  CHG  2   1   1   7   1
M  END
$$$$
=
     RDKit          3D

 34 35  0  0  0  0  0  0  0  0999 V2000
   18.3950   15.2010    6.0990 N   0  0  0  0  0  4  0  0  0  0  0  0
   19.1850   14.9810    4.8480 C   0  0  0  0  0  0  0  0  0  0  0  0
   23.2790   18.3800    5.1640 C   0  0  0  0  0  0  0  0  0  0  0  0
   22.0210   17.6840    4.7620 C   0  0  0  0  0  0  0  0  0  0  0  0
   21.1320   18.0330    3.7680 C   0  0  0  0  0  0  0  0  0  0  0  0
   20.0310   17.1310    3.6810 C   0  0  0  0  0  0  0  0  0  0  0  0
   20.1160   16.1180    4.6150 C   0  0  0  0  0  0  0  0  0  0  0  0
   21.5220   16.2710    5.5840 S   0  0  0  0  0  0  0  0  0  0  0  0
   17.2950   16.2050    6.0200 C   0  0  0  0  0  0  0  0  0  0  0  0
   15.9450   15.5430    5.7720 C   0  0  0  0  0  0  0  0  0  0  0  0
   15.5160   15.5480    4.3060 C   0  0  0  0  0  0  0  0  0  0  0  0
   15.3640   14.2040    3.7890 N   0  0  0  0  0  0  0  0  0  0  0  0
   16.3120   13.4970    3.1080 C   0  0  0  0  0  0  0  0  0  0  0  0
   15.8750   12.3000    2.7950 N   0  0  0  0  0  0  0  0  0  0  0  0
   14.5910   12.2410    3.2730 C   0  0  0  0  0  0  0  0  0  0  0  0
   14.2510   13.4200    3.8970 C   0  0  0  0  0  0  0  0  0  0  0  0
   17.9773   14.2989    6.3687 H   0  0  0  0  0  0  0  0  0  0  0  0
   19.0648   15.5819    6.7825 H   0  0  0  0  0  0  0  0  0  0  0  0
   19.7653   14.0515    4.9447 H   0  0  0  0  0  0  0  0  0  0  0  0
   18.4919   14.9075    3.9970 H   0  0  0  0  0  0  0  0  0  0  0  0
   23.3436   18.4157    6.2615 H   0  0  0  0  0  0  0  0  0  0  0  0
   24.1450   17.8327    4.7633 H   0  0  0  0  0  0  0  0  0  0  0  0
   23.2754   19.4044    4.7633 H   0  0  0  0  0  0  0  0  0  0  0  0
   21.2578   18.9092    3.1150 H   0  0  0  0  0  0  0  0  0  0  0  0
   19.2105   17.2306    2.9551 H   0  0  0  0  0  0  0  0  0  0  0  0
   17.2508   16.7608    6.9682 H   0  0  0  0  0  0  0  0  0  0  0  0
   17.5062   16.8797    5.1773 H   0  0  0  0  0  0  0  0  0  0  0  0
   16.0030   14.4987    6.1128 H   0  0  0  0  0  0  0  0  0  0  0  0
   15.1954   16.1261    6.3272 H   0  0  0  0  0  0  0  0  0  0  0  0
   14.5546   16.0751    4.2175 H   0  0  0  0  0  0  0  0  0  0  0  0
   16.2979   16.0545    3.7211 H   0  0  0  0  0  0  0  0  0  0  0  0
   17.3114   13.8803    2.8547 H   0  0  0  0  0  0  0  0  0  0  0  0
   13.9247   11.3716    3.1718 H   0  0  0  0  0  0  0  0  0  0  0  0
   13.2943   13.6744    4.3766 H   0  0  0  0  0  0  0  0  0  0  0  0
  2  1  1  0
  4  3  1  0
  5  4  2  0
  6  5  1  0
  7  2  1  0
  7  6  2  0
  8  7  1  0
  8  4  1  0
  9  1  1  0
 10  9  1  0
 11 10  1  0
 12 11  1  0
 13 12  1  0
 14 13  2  0
 15 14  1  0
 16 15  2  0
 16 12  1  0
  1 17  1  0
  1 18  1  0
  2 19  1  0
  2 20  1  0
  3 21  1  0
  3 22  1  0
  3 23  1  0
  5 24  1  0
  6 25  1  0
  9 26  1  0
  9 27  1  0
 10 28  1  0
 10 29  1  0
 11 30  1  0
 11 31  1  0
 13 32  1  0
 15 33  1  0
 16 34  1  0
M  CHG  1   1   1
M  END
$$$$
=
     RDKit          3D

 55 56  0  0  0  0  0  0  0  0999 V2000
   28.5380   26.0330   14.6810 C   0  0  2  0  0  0  0  0  0  0  0  0
   29.7320   25.0730   14.7400 C   0  0  0  0  0  0  0  0  0  0  0  0
   29.4850   23.8010   13.9190 C   0  0  0  0  0  0  0  0  0  0  0  0
   28.6080   24.0140   12.6660 C   0  0  2  0  0  0  0  0  0  0  0  0
   28.6960   25.4650   12.1820 C   0  0  0  0  0  0  0  0  0  0  0  0
   28.2350   26.4770   13.2370 C   0  0  0  0  0  0  0  0  0  0  0  0
   27.2170   23.6500   12.9000 N   0  0  0  0  0  0  0  0  0  0  0  0
   26.3510   23.4080   11.8710 C   0  0  0  0  0  0  0  0  0  0  0  0
   26.6670   23.2620   10.7020 O   0  0  0  0  0  0  0  0  0  0  0  0
   25.0930   23.3820   12.3660 O   0  0  0  0  0  0  0  0  0  0  0  0
   24.8660   24.1980   13.5220 C   0  0  0  0  0  0  0  0  0  0  0  0
   23.9520   25.3360   13.1540 C   0  0  0  0  0  0  0  0  0  0  0  0
   23.6390   25.5960   11.8120 C   0  0  0  0  0  0  0  0  0  0  0  0
   22.7760   26.6400   11.4770 C   0  0  0  0  0  0  0  0  0  0  0  0
   22.2110   27.4280   12.4780 C   0  0  0  0  0  0  0  0  0  0  0  0
   22.5040   27.1710   13.8160 C   0  0  0  0  0  0  0  0  0  0  0  0
   23.3680   26.1280   14.1530 C   0  0  0  0  0  0  0  0  0  0  0  0
   27.9550   27.1250   16.7930 C   0  0  0  0  0  0  0  0  0  0  0  0
   27.2440   26.1590   17.1050 O   0  0  0  0  0  0  0  0  0  0  0  0
   28.6630   27.1990   15.6020 N   0  0  0  0  0  0  0  0  0  0  0  0
   29.5080   28.3350   15.1380 C   0  0  0  0  0  0  0  0  0  0  0  0
   30.6790   28.6230   16.0760 C   0  0  0  0  0  0  0  0  0  0  0  0
   28.7200   29.6020   14.8060 C   0  0  0  0  0  0  0  0  0  0  0  0
   27.9970   28.2560   17.8200 C   0  0  0  0  0  0  0  0  0  0  0  0
   26.5890   28.6900   18.1210 N   0  0  0  0  0  4  0  0  0  0  0  0
   27.6744   25.4573   15.0454 H   0  0  0  0  0  0  0  0  0  0  0  0
   30.6204   25.5857   14.3426 H   0  0  0  0  0  0  0  0  0  0  0  0
   29.8803   24.7778   15.7892 H   0  0  0  0  0  0  0  0  0  0  0  0
   30.4589   23.4057   13.5947 H   0  0  0  0  0  0  0  0  0  0  0  0
   28.9376   23.1056   14.5723 H   0  0  0  0  0  0  0  0  0  0  0  0
   29.0007   23.3475   11.8840 H   0  0  0  0  0  0  0  0  0  0  0  0
   29.7414   25.6841   11.9192 H   0  0  0  0  0  0  0  0  0  0  0  0
   28.0255   25.5642   11.3156 H   0  0  0  0  0  0  0  0  0  0  0  0
   28.7467   27.4328   13.0510 H   0  0  0  0  0  0  0  0  0  0  0  0
   27.1425   26.5672   13.1464 H   0  0  0  0  0  0  0  0  0  0  0  0
   26.8764   23.5728   13.8690 H   0  0  0  0  0  0  0  0  0  0  0  0
   24.3996   23.5929   14.3134 H   0  0  0  0  0  0  0  0  0  0  0  0
   25.8242   24.5971   13.8861 H   0  0  0  0  0  0  0  0  0  0  0  0
   24.0767   24.9728   11.0182 H   0  0  0  0  0  0  0  0  0  0  0  0
   22.5413   26.8413   10.4214 H   0  0  0  0  0  0  0  0  0  0  0  0
   21.5337   28.2529   12.2120 H   0  0  0  0  0  0  0  0  0  0  0  0
   22.0544   27.7901   14.6063 H   0  0  0  0  0  0  0  0  0  0  0  0
   23.5926   25.9256   15.2106 H   0  0  0  0  0  0  0  0  0  0  0  0
   29.9340   27.9915   14.1838 H   0  0  0  0  0  0  0  0  0  0  0  0
   30.3417   28.5400   17.1197 H   0  0  0  0  0  0  0  0  0  0  0  0
   31.4837   27.8960   15.8918 H   0  0  0  0  0  0  0  0  0  0  0  0
   31.0547   29.6403   15.8918 H   0  0  0  0  0  0  0  0  0  0  0  0
   28.4120   30.0972   15.7387 H   0  0  0  0  0  0  0  0  0  0  0  0
   29.3531   30.2846   14.2202 H   0  0  0  0  0  0  0  0  0  0  0  0
   27.8278   29.3360   14.2202 H   0  0  0  0  0  0  0  0  0  0  0  0
   28.4793   27.9001   18.7423 H   0  0  0  0  0  0  0  0  0  0  0  0
   28.5717   29.1038   17.4189 H   0  0  0  0  0  0  0  0  0  0  0  0
   26.4533   28.7318   19.1412 H   0  0  0  0  0  0  0  0  0  0  0  0
   26.4224   29.6214   17.7140 H   0  0  0  0  0  0  0  0  0  0  0  0
   25.9269   28.0140   17.7140 H   0  0  0  0  0  0  0  0  0  0  0  0
  2  1  1  0
  3  2  1  0
  4  3  1  0
  5  4  1  0
  6  5  1  0
  6  1  1  0
  7  4  1  0
  8  7  1  0
  9  8  2  0
 10  8  1  0
 11 10  1  0
 12 11  1  0
 13 12  2  0
 14 13  1  0
 15 14  2  0
 16 15  1  0
 17 16  2  0
 17 12  1  0
 19 18  2  0
 20  1  1  0
 20 18  1  0
 21 20  1  0
 22 21  1  0
 23 21  1  0
 24 18  1  0
 25 24  1  0
  1 26  1  1
  2 27  1  0
  2 28  1  0
  3 29  1  0
  3 30  1  0
  4 31  1  6
  5 32  1  0
  5 33  1  0
  6 34  1  0
  6 35  1  0
  7 36  1  0
 11 37  1  0
 11 38  1  0
 13 39  1  0
 14 40  1  0
 15 41  1  0
 16 42  1  0
 17 43  1  0
 21 44  1  0
 22 45  1  0
 22 46  1  0
 22 47  1  0
 23 48  1  0
 23 49  1  0
 23 50  1  0
 24 51  1  0
 24 52  1  0
 25 53  1  0
 25 54  1  0
 25 55  1  0
M  CHG  1  25   1
M  END
$$$$
=
     RDKit          3D

 31 32  0  0  0  0  0  0  0  0999 V2000
   13.3750   13.7140    3.8210 C   0  0  0  0  0  0  0  0  0  0  0  0
   14.4920   13.0650    3.2840 C   0  0  0  0  0  0  0  0  0  0  0  0
   15.7620   13.6500    3.3550 C   0  0  0  0  0  0  0  0  0  0  0  0
   15.9610   14.8960    3.9690 C   0  0  0  0  0  0  0  0  0  0  0  0
   14.8310   15.5440    4.4880 C   0  0  0  0  0  0  0  0  0  0  0  0
   13.5590   14.9640    4.4210 C   0  0  0  0  0  0  0  0  0  0  0  0
   11.7610   12.3550    2.4380 C   0  0  0  0  0  0  0  0  0  0  0  0
   11.9850   13.1030    3.7540 C   0  0  0  0  0  0  0  0  0  0  0  0
   10.8980   14.1580    3.9750 C   0  0  0  0  0  0  0  0  0  0  0  0
   17.3320   15.5280    4.0380 C   0  0  1  0  0  0  0  0  0  0  0  0
   18.1090   15.5150    5.3370 C   0  0  0  0  0  0  0  0  0  0  0  0
   18.5470   14.6430    4.2060 C   0  0  2  0  0  0  0  0  0  0  0  0
   19.7720   15.0350    3.5000 N   0  0  0  0  0  4  0  0  0  0  0  0
   14.3711   12.0843    2.8007 H   0  0  0  0  0  0  0  0  0  0  0  0
   16.6228   13.1212    2.9199 H   0  0  0  0  0  0  0  0  0  0  0  0
   14.9470   16.5313    4.9588 H   0  0  0  0  0  0  0  0  0  0  0  0
   12.6949   15.4968    4.8447 H   0  0  0  0  0  0  0  0  0  0  0  0
   11.4515   11.3213    2.6519 H   0  0  0  0  0  0  0  0  0  0  0  0
   10.9749   12.8606    1.8581 H   0  0  0  0  0  0  0  0  0  0  0  0
   12.6957   12.3453    1.8581 H   0  0  0  0  0  0  0  0  0  0  0  0
   11.9143   12.3700    4.5712 H   0  0  0  0  0  0  0  0  0  0  0  0
   10.7451   14.3064    5.0542 H   0  0  0  0  0  0  0  0  0  0  0  0
   11.2094   15.1073    3.5148 H   0  0  0  0  0  0  0  0  0  0  0  0
    9.9584   13.8183    3.5148 H   0  0  0  0  0  0  0  0  0  0  0  0
   17.0170   16.3065    3.3275 H   0  0  0  0  0  0  0  0  0  0  0  0
   18.7141   16.3878    5.6234 H   0  0  0  0  0  0  0  0  0  0  0  0
   17.8518   15.3449    6.3929 H   0  0  0  0  0  0  0  0  0  0  0  0
   18.7429   13.5676    4.0825 H   0  0  0  0  0  0  0  0  0  0  0  0
   20.5037   15.2691    4.1861 H   0  0  0  0  0  0  0  0  0  0  0  0
   20.0924   14.2545    2.9092 H   0  0  0  0  0  0  0  0  0  0  0  0
   19.5798   15.8565    2.9092 H   0  0  0  0  0  0  0  0  0  0  0  0
  2  1  2  0
  3  2  1  0
  4  3  2  0
  5  4  1  0
  6  5  2  0
  6  1  1  0
  8  7  1  0
  8  1  1  0
  9  8  1  0
 10  4  1  0
 11 10  1  0
 12 11  1  0
 12 10  1  0
 13 12  1  0
  2 14  1  0
  3 15  1  0
  5 16  1  0
  6 17  1  0
  7 18  1  0
  7 19  1  0
  7 20  1  0
  8 21  1  0
  9 22  1  0
  9 23  1  0
  9 24  1  0
 10 25  1  6
 11 26  1  0
 11 27  1  0
 12 28  1  1
 13 29  1  0
 13 30  1  0
 13 31  1  0
M  CHG  1  13   1
M  END
$$$$
=
     RDKit          3D

 38 38  0  0  0  0  0  0  0  0999 V2000
   14.5110   14.2680    3.5700 C   0  0  2  0  0  0  0  0  0  0  0  0
   14.6340   12.7710    3.3430 N   0  0  0  0  0  4  0  0  0  0  0  0
   15.8290   12.4100    2.5000 C   0  0  0  0  0  0  0  0  0  0  0  0
   17.1080   12.9290    3.1600 C   0  0  0  0  0  0  0  0  0  0  0  0
   17.0190   14.3480    3.5060 N   0  0  0  0  0  0  0  0  0  0  0  0
   15.8130   14.8000    4.2110 C   0  0  0  0  0  0  0  0  0  0  0  0
   18.2120   15.0590    3.5770 C   0  0  0  0  0  0  0  0  0  0  0  0
   19.2760   14.6010    3.1890 O   0  0  0  0  0  0  0  0  0  0  0  0
   12.0150   13.8510    3.8570 C   0  0  0  0  0  0  0  0  0  0  0  0
   13.2650   14.5030    4.4290 C   0  0  0  0  0  0  0  0  0  0  0  0
   18.0420   16.2880    4.1180 O   0  0  0  0  0  0  0  0  0  0  0  0
   18.6200   16.6270    5.4090 C   0  0  0  0  0  0  0  0  0  0  0  0
   19.8980   17.4580    5.2450 C   0  0  0  0  0  0  0  0  0  0  0  0
   17.5540   17.4940    6.0950 C   0  0  0  0  0  0  0  0  0  0  0  0
   18.8550   15.3740    6.2590 C   0  0  0  0  0  0  0  0  0  0  0  0
   14.3860   14.8237    2.6289 H   0  0  0  0  0  0  0  0  0  0  0  0
   14.7220   12.3047    4.2572 H   0  0  0  0  0  0  0  0  0  0  0  0
   13.7910   12.4613    2.8386 H   0  0  0  0  0  0  0  0  0  0  0  0
   15.8880   11.3161    2.4004 H   0  0  0  0  0  0  0  0  0  0  0  0
   15.7227   12.8688    1.5059 H   0  0  0  0  0  0  0  0  0  0  0  0
   17.2912   12.3519    4.0784 H   0  0  0  0  0  0  0  0  0  0  0  0
   17.9304   12.8097    2.4393 H   0  0  0  0  0  0  0  0  0  0  0  0
   15.7884   15.8996    4.1963 H   0  0  0  0  0  0  0  0  0  0  0  0
   15.8620   14.4072    5.2373 H   0  0  0  0  0  0  0  0  0  0  0  0
   11.3681   13.5136    4.6802 H   0  0  0  0  0  0  0  0  0  0  0  0
   11.4712   14.5804    3.2386 H   0  0  0  0  0  0  0  0  0  0  0  0
   12.3020   12.9877    3.2386 H   0  0  0  0  0  0  0  0  0  0  0  0
   13.0913   15.5865    4.5050 H   0  0  0  0  0  0  0  0  0  0  0  0
   13.4530   14.0464    5.4120 H   0  0  0  0  0  0  0  0  0  0  0  0
   20.2966   17.7172    6.2369 H   0  0  0  0  0  0  0  0  0  0  0  0
   20.6467   16.8735    4.6902 H   0  0  0  0  0  0  0  0  0  0  0  0
   19.6675   18.3795    4.6902 H   0  0  0  0  0  0  0  0  0  0  0  0
   17.6589   17.4087    7.1867 H   0  0  0  0  0  0  0  0  0  0  0  0
   17.6865   18.5439    5.7948 H   0  0  0  0  0  0  0  0  0  0  0  0
   16.5531   17.1504    5.7948 H   0  0  0  0  0  0  0  0  0  0  0  0
   18.8052   15.6396    7.3253 H   0  0  0  0  0  0  0  0  0  0  0  0
   18.0815   14.6259    6.0310 H   0  0  0  0  0  0  0  0  0  0  0  0
   19.8470   14.9570    6.0310 H   0  0  0  0  0  0  0  0  0  0  0  0
  2  1  1  0
  3  2  1  0
  4  3  1  0
  5  4  1  0
  6  1  1  0
  6  5  1  0
  7  5  1  0
  8  7  2  0
 10  9  1  0
 10  1  1  0
 11  7  1  0
 12 11  1  0
 13 12  1  0
 14 12  1  0
 15 12  1  0
  1 16  1  6
  2 17  1  0
  2 18  1  0
  3 19  1  0
  3 20  1  0
  4 21  1  0
  4 22  1  0
  6 23  1  0
  6 24  1  0
  9 25  1  0
  9 26  1  0
  9 27  1  0
 10 28  1  0
 10 29  1  0
 13 30  1  0
 13 31  1  0
 13 32  1  0
 14 33  1  0
 14 34  1  0
 14 35  1  0
 15 36  1  0
 15 37  1  0
 15 38  1  0
M  CHG  1   2   1
M  END
$$$$
=
     RDKit          3D

 25 26  0  0  0  0  0  0  0  0999 V2000
   20.3040   15.0890    3.9440 O   0  0  0  0  0  0  0  0  0  0  0  0
   19.9500   16.0500    4.9650 S   0  0  0  0  0  6  0  0  0  0  0  0
   20.8990   16.8060    5.7420 O   0  0  0  0  0  0  0  0  0  0  0  0
   18.6140   15.4330    5.9550 C   0  0  0  0  0  0  0  0  0  0  0  0
   17.5930   15.8890    4.8460 C   0  0  0  0  0  0  0  0  0  0  0  0
   18.5770   17.0430    4.4370 C   0  0  0  0  0  0  0  0  0  0  0  0
   16.2690   16.4220    5.4170 C   0  0  0  0  0  0  0  0  0  0  0  0
   15.2870   15.2690    5.5960 C   0  0  0  0  0  0  0  0  0  0  0  0
   14.9080   14.6100    4.2710 C   0  0  0  0  0  0  0  0  0  0  0  0
   15.9630   14.8430    3.2360 N   0  0  0  0  0  4  0  0  0  0  0  0
   17.3660   14.8220    3.7530 C   0  0  0  0  0  0  0  0  0  0  0  0
   18.6419   14.3461    6.1219 H   0  0  0  0  0  0  0  0  0  0  0  0
   18.4917   15.7621    6.9975 H   0  0  0  0  0  0  0  0  0  0  0  0
   18.5765   17.2747    3.3617 H   0  0  0  0  0  0  0  0  0  0  0  0
   18.4392   18.0607    4.8312 H   0  0  0  0  0  0  0  0  0  0  0  0
   16.4558   16.8981    6.3909 H   0  0  0  0  0  0  0  0  0  0  0  0
   15.8425   17.1600    4.7217 H   0  0  0  0  0  0  0  0  0  0  0  0
   15.7477   14.5116    6.2472 H   0  0  0  0  0  0  0  0  0  0  0  0
   14.3678   15.6796    6.0391 H   0  0  0  0  0  0  0  0  0  0  0  0
   14.7908   13.5276    4.4280 H   0  0  0  0  0  0  0  0  0  0  0  0
   13.9651   15.0520    3.9165 H   0  0  0  0  0  0  0  0  0  0  0  0
   15.8752   14.1093    2.5185 H   0  0  0  0  0  0  0  0  0  0  0  0
   15.8039   15.7922    2.8692 H   0  0  0  0  0  0  0  0  0  0  0  0
   17.5738   13.8286    4.1772 H   0  0  0  0  0  0  0  0  0  0  0  0
   18.0418   15.0443    2.9140 H   0  0  0  0  0  0  0  0  0  0  0  0
  2  1  2  0
  3  2  2  0
  4  2  1  0
  5  4  1  0
  6  5  1  0
  6  2  1  0
  7  5  1  0
  8  7  1  0
  9  8  1  0
 10  9  1  0
 11 10  1  0
 11  5  1  0
  4 12  1  0
  4 13  1  0
  6 14  1  0
  6 15  1  0
  7 16  1  0
  7 17  1  0
  8 18  1  0
  8 19  1  0
  9 20  1  0
  9 21  1  0
 10 22  1  0
 10 23  1  0
 11 24  1  0
 11 25  1  0
M  CHG  1  10   1
M  END
$$$$
=
     RDKit          3D

 20 20  0  0  0  0  0  0  0  0999 V2000
   22.2150   17.6130    5.8650 C   0  0  0  0  0  0  0  0  0  0  0  0
   21.1560   16.7320    5.3970 N   0  0  0  0  0  0  0  0  0  0  0  0
   20.6880   16.9820    4.1260 N   0  0  0  0  0  0  0  0  0  0  0  0
   19.7750   16.1970    3.6660 C   0  0  0  0  0  0  0  0  0  0  0  0
   19.1640   15.0670    4.3900 C   0  0  0  0  0  0  0  0  0  0  0  0
   19.6840   14.8100    5.5950 C   0  0  0  0  0  0  0  0  0  0  0  0
   20.7480   15.6630    6.1770 C   0  0  0  0  0  0  0  0  0  0  0  0
   21.1670   15.3770    7.2920 O   0  0  0  0  0  0  0  0  0  0  0  0
   18.0960   14.2770    3.7260 C   0  0  0  0  0  0  0  0  0  0  0  0
   18.6280   13.0950    3.0040 N   0  0  0  0  0  4  0  0  0  0  0  0
   22.2254   17.6217    6.9649 H   0  0  0  0  0  0  0  0  0  0  0  0
   23.1845   17.2513    5.4920 H   0  0  0  0  0  0  0  0  0  0  0  0
   22.0357   18.6322    5.4920 H   0  0  0  0  0  0  0  0  0  0  0  0
   19.4201   16.3869    2.6423 H   0  0  0  0  0  0  0  0  0  0  0  0
   19.3141   13.9464    6.1672 H   0  0  0  0  0  0  0  0  0  0  0  0
   17.3850   13.9322    4.4912 H   0  0  0  0  0  0  0  0  0  0  0  0
   17.6094   14.9292    2.9858 H   0  0  0  0  0  0  0  0  0  0  0  0
   18.9451   12.3906    3.6853 H   0  0  0  0  0  0  0  0  0  0  0  0
   17.8872   12.6918    2.4127 H   0  0  0  0  0  0  0  0  0  0  0  0
   19.4210   13.3821    2.4127 H   0  0  0  0  0  0  0  0  0  0  0  0
  2  1  1  0
  3  2  1  0
  4  3  2  0
  5  4  1  0
  6  5  2  0
  7  6  1  0
  7  2  1  0
  8  7  2  0
  9  5  1  0
 10  9  1  0
  1 11  1  0
  1 12  1  0
  1 13  1  0
  4 14  1  0
  6 15  1  0
  9 16  1  0
  9 17  1  0
 10 18  1  0
 10 19  1  0
 10 20  1  0
M  CHG  1  10   1
M  END
$$$$
=
     RDKit          3D

 32 33  0  0  0  0  0  0  0  0999 V2000
   19.4120   15.0310    4.2150 C   0  0  0  0  0  0  0  0  0  0  0  0
   19.0130   14.0270    3.4340 N   0  0  0  0  0  0  0  0  0  0  0  0
   17.6900   13.7540    3.3850 C   0  0  0  0  0  0  0  0  0  0  0  0
   17.2970   12.5810    2.5200 C   0  0  0  0  0  0  0  0  0  0  0  0
   15.8150   12.5710    2.1610 C   0  0  0  0  0  0  0  0  0  0  0  0
   14.9740   12.7890    3.4110 C   0  0  0  0  0  0  0  0  0  0  0  0
   15.2770   14.1550    4.0280 C   0  0  0  0  0  0  0  0  0  0  0  0
   16.7490   14.4630    4.1240 C   0  0  0  0  0  0  0  0  0  0  0  0
   17.2490   15.5130    4.8940 C   0  0  0  0  0  0  0  0  0  0  0  0
   18.5880   15.8020    4.9500 N   0  0  0  0  0  0  0  0  0  0  0  0
   16.3140   16.3930    5.7180 C   0  0  0  0  0  0  0  0  0  0  0  0
   16.9600   17.3820    6.3910 F   0  0  0  0  0  0  0  0  0  0  0  0
   15.3490   16.9920    4.9720 F   0  0  0  0  0  0  0  0  0  0  0  0
   15.6540   15.6680    6.6740 F   0  0  0  0  0  0  0  0  0  0  0  0
   20.8850   15.3120    4.3110 C   0  0  0  0  0  0  0  0  0  0  0  0
   21.2710   15.8010    5.7020 C   0  0  0  0  0  0  0  0  0  0  0  0
   20.9320   14.7920    6.7460 N   0  0  0  0  0  4  0  0  0  0  0  0
   17.8821   12.6210    1.5894 H   0  0  0  0  0  0  0  0  0  0  0  0
   17.5005   11.6664    3.0963 H   0  0  0  0  0  0  0  0  0  0  0  0
   15.6098   13.3753    1.4393 H   0  0  0  0  0  0  0  0  0  0  0  0
   15.5577   11.5974    1.7185 H   0  0  0  0  0  0  0  0  0  0  0  0
   13.9082   12.7410    3.1433 H   0  0  0  0  0  0  0  0  0  0  0  0
   15.2162   12.0055    4.1442 H   0  0  0  0  0  0  0  0  0  0  0  0
   14.7998   14.9292    3.4092 H   0  0  0  0  0  0  0  0  0  0  0  0
   14.8843   14.1380    5.0554 H   0  0  0  0  0  0  0  0  0  0  0  0
   21.4402   14.3885    4.0900 H   0  0  0  0  0  0  0  0  0  0  0  0
   21.1337   16.1014    3.5864 H   0  0  0  0  0  0  0  0  0  0  0  0
   22.3541   15.9917    5.7267 H   0  0  0  0  0  0  0  0  0  0  0  0
   20.7079   16.7218    5.9142 H   0  0  0  0  0  0  0  0  0  0  0  0
   21.0705   15.2042    7.6797 H   0  0  0  0  0  0  0  0  0  0  0  0
   19.9485   14.5052    6.6398 H   0  0  0  0  0  0  0  0  0  0  0  0
   21.5429   13.9695    6.6398 H   0  0  0  0  0  0  0  0  0  0  0  0
  2  1  2  0
  3  2  1  0
  4  3  1  0
  5  4  1  0
  6  5  1  0
  7  6  1  0
  8  7  1  0
  8  3  2  0
  9  8  1  0
 10  9  2  0
 10  1  1  0
 11  9  1  0
 12 11  1  0
 13 11  1  0
 14 11  1  0
 15  1  1  0
 16 15  1  0
 17 16  1  0
  4 18  1  0
  4 19  1  0
  5 20  1  0
  5 21  1  0
  6 22  1  0
  6 23  1  0
  7 24  1  0
  7 25  1  0
 15 26  1  0
 15 27  1  0
 16 28  1  0
 16 29  1  0
 17 30  1  0
 17 31  1  0
 17 32  1  0
M  CHG  1  17   1
M  END
$$$$
=
     RDKit          3D

 32 32  0  0  0  0  0  0  0  0999 V2000
   20.3940   15.4600    4.8360 C   0  0  0  0  0  0  0  0  0  0  0  0
   20.9270   15.8830    6.2080 C   0  0  1  0  0  0  0  0  0  0  0  0
   21.3970   14.7350    6.9450 O   0  0  0  0  0  0  0  0  0  0  0  0
   22.1120   16.8460    6.0910 C   0  0  0  0  0  0  0  0  0  0  0  0
   22.2180   18.7700    4.4570 C   0  0  0  0  0  0  0  0  0  0  0  0
   21.5610   18.1720    5.6400 N   0  0  0  0  0  4  0  0  0  0  0  0
   19.3910   16.3830    4.4060 O   0  0  0  0  0  0  0  0  0  0  0  0
   18.0750   16.0480    4.5570 C   0  0  0  0  0  0  0  0  0  0  0  0
   17.6080   15.1120    3.6320 C   0  0  0  0  0  0  0  0  0  0  0  0
   16.2840   14.6670    3.6730 C   0  0  0  0  0  0  0  0  0  0  0  0
   15.4080   15.1530    4.6450 C   0  0  0  0  0  0  0  0  0  0  0  0
   15.8690   16.1130    5.5530 C   0  0  0  0  0  0  0  0  0  0  0  0
   17.1950   16.5570    5.5120 C   0  0  0  0  0  0  0  0  0  0  0  0
   13.9740   14.7100    4.6650 C   0  0  0  0  0  0  0  0  0  0  0  0
   21.2196   15.4517    4.1092 H   0  0  0  0  0  0  0  0  0  0  0  0
   19.9570   14.4531    4.9084 H   0  0  0  0  0  0  0  0  0  0  0  0
   20.0894   16.3768    6.7224 H   0  0  0  0  0  0  0  0  0  0  0  0
   21.3239   14.9137    7.9160 H   0  0  0  0  0  0  0  0  0  0  0  0
   22.6073   16.9554    7.0671 H   0  0  0  0  0  0  0  0  0  0  0  0
   22.8558   16.4668    5.3748 H   0  0  0  0  0  0  0  0  0  0  0  0
   22.9941   19.4764    4.7866 H   0  0  0  0  0  0  0  0  0  0  0  0
   22.6788   17.9749    3.8524 H   0  0  0  0  0  0  0  0  0  0  0  0
   21.4696   19.3033    3.8524 H   0  0  0  0  0  0  0  0  0  0  0  0
   21.6528   18.8356    6.4224 H   0  0  0  0  0  0  0  0  0  0  0  0
   20.5869   17.9906    5.3588 H   0  0  0  0  0  0  0  0  0  0  0  0
   18.2898   14.7207    2.8626 H   0  0  0  0  0  0  0  0  0  0  0  0
   15.9306   13.9306    2.9362 H   0  0  0  0  0  0  0  0  0  0  0  0
   15.1812   16.5229    6.3072 H   0  0  0  0  0  0  0  0  0  0  0  0
   17.5444   17.3092    6.2345 H   0  0  0  0  0  0  0  0  0  0  0  0
   13.6369   14.6059    5.7069 H   0  0  0  0  0  0  0  0  0  0  0  0
   13.3520   15.4579    4.1514 H   0  0  0  0  0  0  0  0  0  0  0  0
   13.8822   13.7416    4.1514 H   0  0  0  0  0  0  0  0  0  0  0  0
  2  1  1  0
  3  2  1  0
  4  2  1  0
  6  5  1  0
  6  4  1  0
  7  1  1  0
  8  7  1  0
  9  8  2  0
 10  9  1  0
 11 10  2  0
 12 11  1  0
 13 12  2  0
 13  8  1  0
 14 11  1  0
  1 15  1  0
  1 16  1  0
  2 17  1  1
  3 18  1  0
  4 19  1  0
  4 20  1  0
  5 21  1  0
  5 22  1  0
  5 23  1  0
  6 24  1  0
  6 25  1  0
  9 26  1  0
 10 27  1  0
 12 28  1  0
 13 29  1  0
 14 30  1  0
 14 31  1  0
 14 32  1  0
M  CHG  1   6   1
M  END
$$$$
=
     RDKit          3D

 20 21  0  0  0  0  0  0  0  0999 V2000
   22.0330   17.3260    5.3980 C   0  0  2  0  0  0  0  0  0  0  0  0
   21.1070   18.5250    5.5130 C   0  0  1  0  0  0  0  0  0  0  0  0
   21.6190   18.1070    4.1620 C   0  0  2  0  0  0  0  0  0  0  0  0
   20.4300   17.7890    3.3120 C   0  0  0  0  0  0  0  0  0  0  0  0
   19.2690   17.6710    4.2440 N   0  0  0  0  0  4  0  0  0  0  0  0
   19.6130   18.4570    5.4670 C   0  0  0  0  0  0  0  0  0  0  0  0
   21.6490   15.9090    5.6920 C   0  0  0  0  0  0  0  0  0  0  0  0
   21.5550   15.6420    7.0920 O   0  0  0  0  0  0  0  0  0  0  0  0
   22.9889   17.0265    5.8525 H   0  0  0  0  0  0  0  0  0  0  0  0
   21.1426   19.3410    6.2499 H   0  0  0  0  0  0  0  0  0  0  0  0
   22.2513   18.4358    3.3241 H   0  0  0  0  0  0  0  0  0  0  0  0
   20.2546   18.5957    2.5851 H   0  0  0  0  0  0  0  0  0  0  0  0
   20.5821   16.8602    2.7426 H   0  0  0  0  0  0  0  0  0  0  0  0
   18.4207   18.0545    3.8034 H   0  0  0  0  0  0  0  0  0  0  0  0
   19.0835   16.6855    4.4791 H   0  0  0  0  0  0  0  0  0  0  0  0
   19.1870   19.4691    5.4021 H   0  0  0  0  0  0  0  0  0  0  0  0
   19.2051   17.9865    6.3738 H   0  0  0  0  0  0  0  0  0  0  0  0
   20.6722   15.7058    5.2287 H   0  0  0  0  0  0  0  0  0  0  0  0
   22.4368   15.2597    5.2823 H   0  0  0  0  0  0  0  0  0  0  0  0
   21.8371   16.4433    7.6004 H   0  0  0  0  0  0  0  0  0  0  0  0
  2  1  1  0
  3  2  1  0
  3  1  1  0
  4  3  1  0
  5  4  1  0
  6  5  1  0
  6  2  1  0
  7  1  1  0
  8  7  1  0
  1  9  1  1
  2 10  1  1
  3 11  1  6
  4 12  1  0
  4 13  1  0
  5 14  1  0
  5 15  1  0
  6 16  1  0
  6 17  1  0
  7 18  1  0
  7 19  1  0
  8 20  1  0
M  CHG  1   5   1
M  END
$$$$
=
     RDKit          3D

 23 23  0  0  0  0  0  0  0  0999 V2000
   17.8080   15.9210    5.1510 C   0  0  1  0  0  0  0  0  0  0  0  0
   17.9720   15.4150    3.7100 C   0  0  0  0  0  0  0  0  0  0  0  0
   19.3220   15.5430    3.2380 O   0  0  0  0  0  0  0  0  0  0  0  0
   19.6530   16.8530    2.7760 C   0  0  0  0  0  0  0  0  0  0  0  0
   20.3560   17.6630    3.8680 C   0  0  0  0  0  0  0  0  0  0  0  0
   19.7660   17.4240    5.2200 N   0  0  0  0  0  4  0  0  0  0  0  0
   18.2610   17.3760    5.3240 C   0  0  0  0  0  0  0  0  0  0  0  0
   16.3320   15.8280    5.5480 C   0  0  0  0  0  0  0  0  0  0  0  0
   15.6660   16.9380    5.1770 F   0  0  0  0  0  0  0  0  0  0  0  0
   16.2130   15.6820    6.8840 F   0  0  0  0  0  0  0  0  0  0  0  0
   15.7430   14.7670    4.9630 F   0  0  0  0  0  0  0  0  0  0  0  0
   18.6910   15.1390    6.0130 O   0  0  0  0  0  0  0  0  0  0  0  0
   17.6832   14.3543    3.6725 H   0  0  0  0  0  0  0  0  0  0  0  0
   17.3293   16.0294    3.0623 H   0  0  0  0  0  0  0  0  0  0  0  0
   20.3205   16.7687    1.9057 H   0  0  0  0  0  0  0  0  0  0  0  0
   18.7224   17.3715    2.5018 H   0  0  0  0  0  0  0  0  0  0  0  0
   21.4185   17.3790    3.8905 H   0  0  0  0  0  0  0  0  0  0  0  0
   20.2302   18.7295    3.6296 H   0  0  0  0  0  0  0  0  0  0  0  0
   20.1278   16.5214    5.5595 H   0  0  0  0  0  0  0  0  0  0  0  0
   20.0418   18.2460    5.7761 H   0  0  0  0  0  0  0  0  0  0  0  0
   17.8144   18.0000    4.5358 H   0  0  0  0  0  0  0  0  0  0  0  0
   17.9383   17.7575    6.3040 H   0  0  0  0  0  0  0  0  0  0  0  0
   18.4782   15.3275    6.9613 H   0  0  0  0  0  0  0  0  0  0  0  0
  2  1  1  0
  3  2  1  0
  4  3  1  0
  5  4  1  0
  6  5  1  0
  7  1  1  0
  7  6  1  0
  8  1  1  0
  9  8  1  0
 10  8  1  0
 11  8  1  0
  1 12  1  1
  2 13  1  0
  2 14  1  0
  4 15  1  0
  4 16  1  0
  5 17  1  0
  5 18  1  0
  6 19  1  0
  6 20  1  0
  7 21  1  0
  7 22  1  0
 12 23  1  0
M  CHG  1   6   1
M  END
$$$$
=
     RDKit          3D

 45 46  0  0  0  0  0  0  0  0999 V2000
   15.8600   14.3000    3.6370 C   0  0  0  0  0  0  0  0  0  0  0  0
   15.9120   13.0570    3.0010 C   0  0  0  0  0  0  0  0  0  0  0  0
   17.1350   12.4160    2.8010 C   0  0  0  0  0  0  0  0  0  0  0  0
   18.3160   13.0120    3.2290 C   0  0  0  0  0  0  0  0  0  0  0  0
   18.2790   14.2540    3.8590 C   0  0  0  0  0  0  0  0  0  0  0  0
   17.0530   14.9100    4.0720 C   0  0  0  0  0  0  0  0  0  0  0  0
   14.7090   15.0160    3.8480 O   0  0  0  0  0  0  0  0  0  0  0  0
   13.6990   14.3880    4.6490 C   0  0  0  0  0  0  0  0  0  0  0  0
   12.3690   12.8410    3.1470 C   0  0  0  0  0  0  0  0  0  0  0  0
   12.4140   14.2090    3.8260 C   0  0  0  0  0  0  0  0  0  0  0  0
   11.1660   14.4060    4.6900 C   0  0  0  0  0  0  0  0  0  0  0  0
   17.0420   16.2570    4.7390 C   0  0  0  0  0  0  0  0  0  0  0  0
   18.3860   16.6760    5.2180 N   0  0  0  0  0  4  0  0  0  0  0  0
   19.1000   17.6780    4.3560 C   0  0  0  0  0  0  0  0  0  0  0  0
   20.5350   17.1740    4.1650 C   0  0  1  0  0  0  0  0  0  0  0  0
   21.5730   18.2860    4.1550 C   0  0  0  0  0  0  0  0  0  0  0  0
   22.0790   18.2910    5.5760 C   0  0  0  0  0  0  0  0  0  0  0  0
   22.0140   16.8250    5.9400 C   0  0  0  0  0  0  0  0  0  0  0  0
   20.8300   16.3180    5.2960 O   0  0  0  0  0  0  0  0  0  0  0  0
   14.9826   12.5806    2.6557 H   0  0  0  0  0  0  0  0  0  0  0  0
   17.1650   11.4357    2.3030 H   0  0  0  0  0  0  0  0  0  0  0  0
   19.2784   12.5035    3.0704 H   0  0  0  0  0  0  0  0  0  0  0  0
   19.2154   14.7252    4.1923 H   0  0  0  0  0  0  0  0  0  0  0  0
   14.0583   13.4034    4.9827 H   0  0  0  0  0  0  0  0  0  0  0  0
   13.4841   15.0214    5.5223 H   0  0  0  0  0  0  0  0  0  0  0  0
   12.3430   12.0521    3.9131 H   0  0  0  0  0  0  0  0  0  0  0  0
   11.4681   12.7726    2.5195 H   0  0  0  0  0  0  0  0  0  0  0  0
   13.2634   12.7135    2.5195 H   0  0  0  0  0  0  0  0  0  0  0  0
   12.4241   14.9834    3.0449 H   0  0  0  0  0  0  0  0  0  0  0  0
   11.4453   14.3619    5.7530 H   0  0  0  0  0  0  0  0  0  0  0  0
   10.7179   15.3860    4.4689 H   0  0  0  0  0  0  0  0  0  0  0  0
   10.4379   13.6117    4.4689 H   0  0  0  0  0  0  0  0  0  0  0  0
   16.6781   17.0032    4.0173 H   0  0  0  0  0  0  0  0  0  0  0  0
   16.3856   16.1846    5.6187 H   0  0  0  0  0  0  0  0  0  0  0  0
   18.2740   17.0875    6.1556 H   0  0  0  0  0  0  0  0  0  0  0  0
   18.9678   15.8262    5.2025 H   0  0  0  0  0  0  0  0  0  0  0  0
   18.5975   17.7618    3.3811 H   0  0  0  0  0  0  0  0  0  0  0  0
   19.0956   18.6715    4.8282 H   0  0  0  0  0  0  0  0  0  0  0  0
   20.5894   16.6658    3.1910 H   0  0  0  0  0  0  0  0  0  0  0  0
   22.3848   18.0627    3.4471 H   0  0  0  0  0  0  0  0  0  0  0  0
   21.1651   19.2568    3.8368 H   0  0  0  0  0  0  0  0  0  0  0  0
   23.1098   18.6709    5.6315 H   0  0  0  0  0  0  0  0  0  0  0  0
   21.5008   18.9405    6.2496 H   0  0  0  0  0  0  0  0  0  0  0  0
   22.9067   16.2981    5.5720 H   0  0  0  0  0  0  0  0  0  0  0  0
   21.9795   16.6774    7.0295 H   0  0  0  0  0  0  0  0  0  0  0  0
  2  1  2  0
  3  2  1  0
  4  3  2  0
  5  4  1  0
  6  1  1  0
  6  5  2  0
  7  1  1  0
  8  7  1  0
 10  9  1  0
 10  8  1  0
 11 10  1  0
 12  6  1  0
 13 12  1  0
 14 13  1  0
 15 14  1  0
 16 15  1  0
 17 16  1  0
 18 17  1  0
 19 15  1  0
 19 18  1  0
  2 20  1  0
  3 21  1  0
  4 22  1  0
  5 23  1  0
  8 24  1  0
  8 25  1  0
  9 26  1  0
  9 27  1  0
  9 28  1  0
 10 29  1  0
 11 30  1  0
 11 31  1  0
 11 32  1  0
 12 33  1  0
 12 34  1  0
 13 35  1  0
 13 36  1  0
 14 37  1  0
 14 38  1  0
 15 39  1  6
 16 40  1  0
 16 41  1  0
 17 42  1  0
 17 43  1  0
 18 44  1  0
 18 45  1  0
M  CHG  1  13   1
M  END
$$$$
=
     RDKit          3D

 18 18  0  0  0  0  0  0  0  0999 V2000
   20.7480   16.7000    4.7250 C   0  0  0  0  0  0  0  0  0  0  0  0
   21.1340   17.9140    4.1400 C   0  0  0  0  0  0  0  0  0  0  0  0
   22.2040   18.6250    4.6750 C   0  0  0  0  0  0  0  0  0  0  0  0
   22.8500   18.0960    5.7750 C   0  0  0  0  0  0  0  0  0  0  0  0
   22.4990   16.9300    6.3590 N   0  0  0  0  0  0  0  0  0  0  0  0
   21.4500   16.2480    5.8530 C   0  0  0  0  0  0  0  0  0  0  0  0
   21.1760   15.0180    6.4720 N   0  0  0  0  0  0  0  0  0  0  0  0
   18.2000   16.4630    4.3830 C   0  0  0  0  0  0  0  0  0  0  0  0
   19.5950   15.9270    4.1820 C   0  0  0  0  0  0  0  0  0  0  0  0
   19.7840   14.8630    3.5940 O   0  0  0  0  0  0  0  0  0  0  0  0
   20.5945   18.3022    3.2635 H   0  0  0  0  0  0  0  0  0  0  0  0
   22.5258   19.5803    4.2347 H   0  0  0  0  0  0  0  0  0  0  0  0
   23.6971   18.6552    6.1989 H   0  0  0  0  0  0  0  0  0  0  0  0
   21.7166   14.7257    7.2986 H   0  0  0  0  0  0  0  0  0  0  0  0
   20.4344   14.4079    6.0995 H   0  0  0  0  0  0  0  0  0  0  0  0
   17.9898   16.5438    5.4597 H   0  0  0  0  0  0  0  0  0  0  0  0
   18.1184   17.4565    3.9180 H   0  0  0  0  0  0  0  0  0  0  0  0
   17.4741   15.7797    3.9180 H   0  0  0  0  0  0  0  0  0  0  0  0
  2  1  2  0
  3  2  1  0
  4  3  2  0
  5  4  1  0
  6  1  1  0
  6  5  2  0
  7  6  1  0
  9  8  1  0
  9  1  1  0
 10  9  2  0
  2 11  1  0
  3 12  1  0
  4 13  1  0
  7 14  1  0
  7 15  1  0
  8 16  1  0
  8 17  1  0
  8 18  1  0
M  END
$$$$
=
     RDKit          3D

 37 37  0  0  0  0  0  0  0  0999 V2000
   20.3510   16.9410    3.2630 C   0  0  2  0  0  0  0  0  0  0  0  0
   21.0880   17.4940    4.5270 C   0  0  1  0  0  0  0  0  0  0  0  0
   21.7430   16.4580    5.4360 C   0  0  0  0  0  0  0  0  0  0  0  0
   22.4900   17.3120    6.3140 O   0  0  0  0  0  0  0  0  0  0  0  0
   23.1770   18.2570    5.4660 C   0  0  0  0  0  0  0  0  0  0  0  0
   22.2590   18.4530    4.2590 C   0  0  0  0  0  0  0  0  0  0  0  0
   20.1330   18.2970    5.4600 N   0  0  0  0  0  4  0  0  0  0  0  0
   19.7080   18.0360    2.4040 N   0  0  0  0  0  4  0  0  0  0  0  0
   19.4690   14.6800    3.4900 O   0  0  0  0  0  0  0  0  0  0  0  0
   19.3010   15.8760    3.6240 C   0  0  0  0  0  0  0  0  0  0  0  0
   18.1940   16.5010    4.1130 O   0  0  0  0  0  0  0  0  0  0  0  0
   17.4640   15.9400    5.2490 C   0  0  0  0  0  0  0  0  0  0  0  0
   16.2990   15.0650    4.7770 C   0  0  0  0  0  0  0  0  0  0  0  0
   16.9000   17.1600    5.9900 C   0  0  0  0  0  0  0  0  0  0  0  0
   18.4090   15.1830    6.1880 C   0  0  0  0  0  0  0  0  0  0  0  0
   21.1408   16.4707    2.6589 H   0  0  0  0  0  0  0  0  0  0  0  0
   20.9939   15.8680    5.9844 H   0  0  0  0  0  0  0  0  0  0  0  0
   22.3459   15.7035    4.9095 H   0  0  0  0  0  0  0  0  0  0  0  0
   23.3288   19.2099    5.9941 H   0  0  0  0  0  0  0  0  0  0  0  0
   24.1733   17.8961    5.1707 H   0  0  0  0  0  0  0  0  0  0  0  0
   22.7771   18.1872    3.3258 H   0  0  0  0  0  0  0  0  0  0  0  0
   21.9338   19.4968    4.1378 H   0  0  0  0  0  0  0  0  0  0  0  0
   20.3677   18.0997    6.4433 H   0  0  0  0  0  0  0  0  0  0  0  0
   20.2412   19.3048    5.2768 H   0  0  0  0  0  0  0  0  0  0  0  0
   19.1588   18.0174    5.2768 H   0  0  0  0  0  0  0  0  0  0  0  0
   19.2885   18.7504    3.0160 H   0  0  0  0  0  0  0  0  0  0  0  0
   20.4270   18.4725    1.8095 H   0  0  0  0  0  0  0  0  0  0  0  0
   18.9766   17.6208    1.8095 H   0  0  0  0  0  0  0  0  0  0  0  0
   15.7645   14.6636    5.6506 H   0  0  0  0  0  0  0  0  0  0  0  0
   15.6085   15.6696    4.1707 H   0  0  0  0  0  0  0  0  0  0  0  0
   16.6872   14.2333    4.1707 H   0  0  0  0  0  0  0  0  0  0  0  0
   16.9754   16.9970    7.0752 H   0  0  0  0  0  0  0  0  0  0  0  0
   17.4754   18.0556    5.7129 H   0  0  0  0  0  0  0  0  0  0  0  0
   15.8450   17.3018    5.7129 H   0  0  0  0  0  0  0  0  0  0  0  0
   18.1391   15.3992    7.2322 H   0  0  0  0  0  0  0  0  0  0  0  0
   18.3216   14.1022    6.0029 H   0  0  0  0  0  0  0  0  0  0  0  0
   19.4447   15.5041    6.0029 H   0  0  0  0  0  0  0  0  0  0  0  0
  2  1  1  0
  3  2  1  0
  4  3  1  0
  5  4  1  0
  6  2  1  0
  6  5  1  0
  2  7  1  1
  8  1  1  0
 10  9  2  0
 10  1  1  0
 11 10  1  0
 12 11  1  0
 13 12  1  0
 14 12  1  0
 15 12  1  0
  1 16  1  6
  3 17  1  0
  3 18  1  0
  5 19  1  0
  5 20  1  0
  6 21  1  0
  6 22  1  0
  7 23  1  0
  7 24  1  0
  7 25  1  0
  8 26  1  0
  8 27  1  0
  8 28  1  0
 13 29  1  0
 13 30  1  0
 13 31  1  0
 14 32  1  0
 14 33  1  0
 14 34  1  0
 15 35  1  0
 15 36  1  0
 15 37  1  0
M  CHG  2   7   1   8   1
M  END
$$$$
=
     RDKit          3D

 56 58  0  0  0  0  0  0  0  0999 V2000
   24.4760   25.8800   12.2650 C   0  0  1  0  0  0  0  0  0  0  0  0
   24.3720   24.3530   12.0790 C   0  0  0  0  0  0  0  0  0  0  0  0
   23.0490   23.7770   11.5730 C   0  0  0  0  0  0  0  0  0  0  0  0
   22.3820   24.5780   10.4610 C   0  0  0  0  0  0  0  0  0  0  0  0
   21.5590   25.6660   10.9990 N   0  0  0  0  0  0  0  0  0  0  0  0
   22.2730   26.8600   11.4420 C   0  0  0  0  0  0  0  0  0  0  0  0
   23.1720   26.6050   12.6540 C   0  0  0  0  0  0  0  0  0  0  0  0
   20.2420   25.5060   11.4510 C   0  0  0  0  0  0  0  0  0  0  0  0
   19.6510   26.3320   12.1440 O   0  0  0  0  0  0  0  0  0  0  0  0
   19.4940   24.3030   11.0770 C   0  0  0  0  0  0  0  0  0  0  0  0
   18.8600   24.2240    9.8570 C   0  0  0  0  0  0  0  0  0  0  0  0
   18.1460   23.1510    9.4560 N   0  0  0  0  0  0  0  0  0  0  0  0
   18.0330   22.1540   10.3390 C   0  0  0  0  0  0  0  0  0  0  0  0
   18.5970   22.1400   11.5530 N   0  0  0  0  0  0  0  0  0  0  0  0
   19.3130   23.2300   11.9280 C   0  0  0  0  0  0  0  0  0  0  0  0
   19.8760   23.2110   13.3180 C   0  0  0  0  0  0  0  0  0  0  0  0
   17.3210   21.0400    9.9550 N   0  0  0  0  0  0  0  0  0  0  0  0
   26.8980   26.2210   12.7080 C   0  0  0  0  0  0  0  0  0  0  0  0
   27.1970   26.0600   11.5270 O   0  0  0  0  0  0  0  0  0  0  0  0
   25.5850   26.2210   13.1860 N   0  0  0  0  0  0  0  0  0  0  0  0
   25.2030   26.7370   14.4970 C   0  0  0  0  0  0  0  0  0  0  0  0
   29.4380   27.8750   14.9400 C   0  0  0  0  0  0  0  0  0  0  0  0
   30.1350   26.7640   15.4230 C   0  0  0  0  0  0  0  0  0  0  0  0
   29.7810   25.4730   15.0160 C   0  0  0  0  0  0  0  0  0  0  0  0
   28.7210   25.2840   14.1310 C   0  0  0  0  0  0  0  0  0  0  0  0
   28.0100   26.3950   13.6660 C   0  0  0  0  0  0  0  0  0  0  0  0
   28.3770   27.6860   14.0530 C   0  0  0  0  0  0  0  0  0  0  0  0
   30.7840   29.4330   16.1300 C   0  0  0  0  0  0  0  0  0  0  0  0
   29.6910   29.1820   15.2560 O   0  0  0  0  0  0  0  0  0  0  0  0
   24.6957   26.2672   11.2591 H   0  0  0  0  0  0  0  0  0  0  0  0
   25.1522   24.0575   11.3621 H   0  0  0  0  0  0  0  0  0  0  0  0
   24.4763   23.9460   13.0956 H   0  0  0  0  0  0  0  0  0  0  0  0
   23.2410   22.7621   11.1947 H   0  0  0  0  0  0  0  0  0  0  0  0
   22.3564   23.8005   12.4272 H   0  0  0  0  0  0  0  0  0  0  0  0
   23.1608   25.0063    9.8130 H   0  0  0  0  0  0  0  0  0  0  0  0
   21.7279   23.9000    9.8932 H   0  0  0  0  0  0  0  0  0  0  0  0
   22.8978   27.2226   10.6124 H   0  0  0  0  0  0  0  0  0  0  0  0
   21.5183   27.6016   11.7428 H   0  0  0  0  0  0  0  0  0  0  0  0
   23.4268   27.5701   13.1162 H   0  0  0  0  0  0  0  0  0  0  0  0
   22.6216   25.9604   13.3551 H   0  0  0  0  0  0  0  0  0  0  0  0
   18.9398   25.0814    9.1725 H   0  0  0  0  0  0  0  0  0  0  0  0
   19.0530   23.2388   14.0473 H   0  0  0  0  0  0  0  0  0  0  0  0
   20.4637   22.2925   13.4631 H   0  0  0  0  0  0  0  0  0  0  0  0
   20.5242   24.0878   13.4631 H   0  0  0  0  0  0  0  0  0  0  0  0
   17.2106   20.2496   10.6062 H   0  0  0  0  0  0  0  0  0  0  0  0
   16.8987   20.9969    9.0165 H   0  0  0  0  0  0  0  0  0  0  0  0
   25.6612   26.1180   15.2824 H   0  0  0  0  0  0  0  0  0  0  0  0
   25.5518   27.7753   14.5982 H   0  0  0  0  0  0  0  0  0  0  0  0
   24.1081   26.7065   14.5982 H   0  0  0  0  0  0  0  0  0  0  0  0
   30.9675   26.9055   16.1279 H   0  0  0  0  0  0  0  0  0  0  0  0
   30.3405   24.6052   15.3954 H   0  0  0  0  0  0  0  0  0  0  0  0
   28.4463   24.2711   13.8015 H   0  0  0  0  0  0  0  0  0  0  0  0
   27.8293   28.5545   13.6584 H   0  0  0  0  0  0  0  0  0  0  0  0
   30.4445   29.3550   17.1734 H   0  0  0  0  0  0  0  0  0  0  0  0
   31.5776   28.6937   15.9464 H   0  0  0  0  0  0  0  0  0  0  0  0
   31.1755   30.4444   15.9464 H   0  0  0  0  0  0  0  0  0  0  0  0
  2  1  1  0
  3  2  1  0
  4  3  1  0
  5  4  1  0
  6  5  1  0
  7  6  1  0
  7  1  1  0
  8  5  1  0
  9  8  2  0
 10  8  1  0
 11 10  2  0
 12 11  1  0
 13 12  2  0
 14 13  1  0
 15 14  2  0
 15 10  1  0
 16 15  1  0
 17 13  1  0
 19 18  2  0
 20 18  1  0
 20  1  1  0
 21 20  1  0
 23 22  2  0
 24 23  1  0
 25 24  2  0
 26 18  1  0
 26 25  1  0
 27 26  2  0
 27 22  1  0
 29 28  1  0
 29 22  1  0
  1 30  1  6
  2 31  1  0
  2 32  1  0
  3 33  1  0
  3 34  1  0
  4 35  1  0
  4 36  1  0
  6 37  1  0
  6 38  1  0
  7 39  1  0
  7 40  1  0
 11 41  1  0
 16 42  1  0
 16 43  1  0
 16 44  1  0
 17 45  1  0
 17 46  1  0
 21 47  1  0
 21 48  1  0
 21 49  1  0
 23 50  1  0
 24 51  1  0
 25 52  1  0
 27 53  1  0
 28 54  1  0
 28 55  1  0
 28 56  1  0
M  END
$$$$
=
     RDKit          3D

 55 58  0  0  0  0  0  0  0  0999 V2000
   10.8160   12.8380    2.9160 C   0  0  0  0  0  0  0  0  0  0  0  0
   10.1920   13.5550    3.8720 C   0  0  0  0  0  0  0  0  0  0  0  0
    8.6940   13.3290    3.9320 C   0  0  2  0  0  0  0  0  0  0  0  0
    8.5300   12.3190    2.8260 C   0  0  0  0  0  0  0  0  0  0  0  0
    9.7740   12.0710    2.2210 C   0  0  0  0  0  0  0  0  0  0  0  0
    9.8490   11.2370    1.1160 C   0  0  0  0  0  0  0  0  0  0  0  0
    8.6810   10.6210    0.6550 C   0  0  0  0  0  0  0  0  0  0  0  0
    7.4530   10.8440    1.2910 C   0  0  0  0  0  0  0  0  0  0  0  0
    7.3660   11.7010    2.3870 C   0  0  0  0  0  0  0  0  0  0  0  0
    7.8540   14.6200    3.6860 C   0  0  1  0  0  0  0  0  0  0  0  0
    7.6730   14.8960    2.1890 C   0  0  0  0  0  0  0  0  0  0  0  0
    6.8410   16.1350    1.8450 C   0  0  0  0  0  0  0  0  0  0  0  0
    5.3450   15.9190    2.0570 C   0  0  0  0  0  0  0  0  0  0  0  0
    4.8460   16.1390    3.4850 C   0  0  0  0  0  0  0  0  0  0  0  0
    5.7930   15.7900    4.6180 C   0  0  0  0  0  0  0  0  0  0  0  0
    6.5050   14.5090    4.3730 N   0  0  0  0  0  4  0  0  0  0  0  0
   13.1920   12.6340    3.6130 C   0  0  0  0  0  0  0  0  0  0  0  0
   12.2410   12.9150    2.7090 C   0  0  0  0  0  0  0  0  0  0  0  0
   14.6220   12.8030    3.2250 C   0  0  0  0  0  0  0  0  0  0  0  0
   15.1480   12.0640    2.3990 O   0  0  0  0  0  0  0  0  0  0  0  0
   17.5020   17.1610    5.7480 C   0  0  0  0  0  0  0  0  0  0  0  0
   16.7610   16.0480    5.0660 C   0  0  0  0  0  0  0  0  0  0  0  0
   17.3740   15.3030    4.0520 C   0  0  0  0  0  0  0  0  0  0  0  0
   16.6970   14.2460    3.4350 C   0  0  0  0  0  0  0  0  0  0  0  0
   15.4000   13.9110    3.8430 C   0  0  0  0  0  0  0  0  0  0  0  0
   14.7840   14.6570    4.8550 C   0  0  0  0  0  0  0  0  0  0  0  0
   15.4640   15.7110    5.4690 C   0  0  0  0  0  0  0  0  0  0  0  0
   10.7221   14.2423    4.5478 H   0  0  0  0  0  0  0  0  0  0  0  0
    8.3330   13.0042    4.9190 H   0  0  0  0  0  0  0  0  0  0  0  0
   10.8104   11.0628    0.6106 H   0  0  0  0  0  0  0  0  0  0  0  0
    8.7273    9.9531   -0.2178 H   0  0  0  0  0  0  0  0  0  0  0  0
    6.5487   10.3380    0.9220 H   0  0  0  0  0  0  0  0  0  0  0  0
    6.4043   11.8824    2.8892 H   0  0  0  0  0  0  0  0  0  0  0  0
    8.4053   15.4686    4.1172 H   0  0  0  0  0  0  0  0  0  0  0  0
    8.6710   15.0233    1.7444 H   0  0  0  0  0  0  0  0  0  0  0  0
    7.1164   14.0363    1.7876 H   0  0  0  0  0  0  0  0  0  0  0  0
    7.1700   16.9680    2.4837 H   0  0  0  0  0  0  0  0  0  0  0  0
    6.9967   16.3534    0.7782 H   0  0  0  0  0  0  0  0  0  0  0  0
    4.8050   16.6148    1.3980 H   0  0  0  0  0  0  0  0  0  0  0  0
    5.1570   14.8591    1.8305 H   0  0  0  0  0  0  0  0  0  0  0  0
    4.5909   17.2044    3.5847 H   0  0  0  0  0  0  0  0  0  0  0  0
    4.0030   15.4415    3.5986 H   0  0  0  0  0  0  0  0  0  0  0  0
    6.5355   16.5950    4.7211 H   0  0  0  0  0  0  0  0  0  0  0  0
    5.1979   15.6780    5.5363 H   0  0  0  0  0  0  0  0  0  0  0  0
    6.6516   14.0505    5.2836 H   0  0  0  0  0  0  0  0  0  0  0  0
    5.9060   13.9770    3.7256 H   0  0  0  0  0  0  0  0  0  0  0  0
   12.9220   12.2857    4.6209 H   0  0  0  0  0  0  0  0  0  0  0  0
   12.5815   13.2352    1.7133 H   0  0  0  0  0  0  0  0  0  0  0  0
   17.4219   17.0406    6.8385 H   0  0  0  0  0  0  0  0  0  0  0  0
   18.5612   17.1313    5.4527 H   0  0  0  0  0  0  0  0  0  0  0  0
   17.0660   18.1267    5.4527 H   0  0  0  0  0  0  0  0  0  0  0  0
   18.3983   15.5512    3.7372 H   0  0  0  0  0  0  0  0  0  0  0  0
   17.1837   13.6775    2.6288 H   0  0  0  0  0  0  0  0  0  0  0  0
   13.7585   14.4115    5.1683 H   0  0  0  0  0  0  0  0  0  0  0  0
   14.9769   16.2800    6.2746 H   0  0  0  0  0  0  0  0  0  0  0  0
  2  1  2  0
  3  2  1  0
  4  3  1  0
  5  4  2  0
  5  1  1  0
  6  5  1  0
  7  6  2  0
  8  7  1  0
  9  8  2  0
  9  4  1  0
 10  3  1  0
 11 10  1  0
 12 11  1  0
 13 12  1  0
 14 13  1  0
 15 14  1  0
 16 15  1  0
 16 10  1  0
 18  1  1  0
 18 17  2  0
 19 17  1  0
 20 19  2  0
 22 21  1  0
 23 22  2  0
 24 23  1  0
 25 19  1  0
 25 24  2  0
 26 25  1  0
 27 26  2  0
 27 22  1  0
  2 28  1  0
  3 29  1  1
  6 30  1  0
  7 31  1  0
  8 32  1  0
  9 33  1  0
 10 34  1  1
 11 35  1  0
 11 36  1  0
 12 37  1  0
 12 38  1  0
 13 39  1  0
 13 40  1  0
 14 41  1  0
 14 42  1  0
 15 43  1  0
 15 44  1  0
 16 45  1  0
 16 46  1  0
 17 47  1  0
 18 48  1  0
 21 49  1  0
 21 50  1  0
 21 51  1  0
 23 52  1  0
 24 53  1  0
 26 54  1  0
 27 55  1  0
M  CHG  1  16   1
M  END
$$$$
=
     RDKit          3D

 39 39  0  0  0  0  0  0  0  0999 V2000
   18.8580   14.7780    5.1410 C   0  0  1  0  0  0  0  0  0  0  0  0
   19.3860   14.9700    6.4520 O   0  0  0  0  0  0  0  0  0  0  0  0
   17.5040   15.4980    5.0190 C   0  0  0  0  0  0  0  0  0  0  0  0
   16.9290   15.2440    3.7280 O   0  0  0  0  0  0  0  0  0  0  0  0
   15.4050   13.4340    3.3450 C   0  0  0  0  0  0  0  0  0  0  0  0
   14.1090   12.9160    3.3890 C   0  0  0  0  0  0  0  0  0  0  0  0
   13.0690   13.7020    3.8890 C   0  0  0  0  0  0  0  0  0  0  0  0
   13.3200   15.0020    4.3370 C   0  0  0  0  0  0  0  0  0  0  0  0
   14.6140   15.5240    4.2960 C   0  0  0  0  0  0  0  0  0  0  0  0
   15.6560   14.7320    3.8170 C   0  0  0  0  0  0  0  0  0  0  0  0
   17.4510   12.0310    2.6300 N   0  0  0  0  0  0  0  0  0  0  0  0
   16.4960   12.6590    2.8420 C   0  0  0  0  0  0  0  0  0  0  0  0
   19.9090   15.2830    4.1260 C   0  0  0  0  0  0  0  0  0  0  0  0
   20.7700   16.3750    4.6800 N   0  0  0  0  0  4  0  0  0  0  0  0
   20.4760   17.8100    4.3020 C   0  0  0  0  0  0  0  0  0  0  0  0
   19.6830   17.8430    2.9930 C   0  0  0  0  0  0  0  0  0  0  0  0
   21.8340   18.4960    4.0990 C   0  0  0  0  0  0  0  0  0  0  0  0
   19.7140   18.4940    5.4380 C   0  0  0  0  0  0  0  0  0  0  0  0
   18.6638   13.7157    4.9315 H   0  0  0  0  0  0  0  0  0  0  0  0
   18.7019   14.7212    7.1230 H   0  0  0  0  0  0  0  0  0  0  0  0
   16.8232   15.1291    5.8003 H   0  0  0  0  0  0  0  0  0  0  0  0
   17.6577   16.5805    5.1399 H   0  0  0  0  0  0  0  0  0  0  0  0
   13.9087   11.8950    3.0320 H   0  0  0  0  0  0  0  0  0  0  0  0
   12.0474   13.2963    3.9305 H   0  0  0  0  0  0  0  0  0  0  0  0
   12.4938   15.6167    4.7238 H   0  0  0  0  0  0  0  0  0  0  0  0
   14.8095   16.5509    4.6386 H   0  0  0  0  0  0  0  0  0  0  0  0
   20.5531   14.4393    3.8374 H   0  0  0  0  0  0  0  0  0  0  0  0
   19.3657   15.6944    3.2625 H   0  0  0  0  0  0  0  0  0  0  0  0
   20.7083   16.3155    5.7064 H   0  0  0  0  0  0  0  0  0  0  0  0
   21.6935   16.1954    4.2607 H   0  0  0  0  0  0  0  0  0  0  0  0
   18.6070   17.8878    3.2172 H   0  0  0  0  0  0  0  0  0  0  0  0
   19.9734   18.7298    2.4106 H   0  0  0  0  0  0  0  0  0  0  0  0
   19.8987   16.9351    2.4106 H   0  0  0  0  0  0  0  0  0  0  0  0
   22.2808   18.7217    5.0785 H   0  0  0  0  0  0  0  0  0  0  0  0
   22.5022   17.8273    3.5365 H   0  0  0  0  0  0  0  0  0  0  0  0
   21.6922   19.4306    3.5365 H   0  0  0  0  0  0  0  0  0  0  0  0
   20.1046   18.1434    6.4047 H   0  0  0  0  0  0  0  0  0  0  0  0
   19.8446   19.5836    5.3632 H   0  0  0  0  0  0  0  0  0  0  0  0
   18.6447   18.2469    5.3632 H   0  0  0  0  0  0  0  0  0  0  0  0
  2  1  1  0
  3  1  1  0
  4  3  1  0
  6  5  2  0
  7  6  1  0
  8  7  2  0
  9  8  1  0
 10  9  2  0
 10  5  1  0
 10  4  1  0
 12  5  1  0
 12 11  3  0
 13  1  1  0
 14 13  1  0
 15 14  1  0
 16 15  1  0
 17 15  1  0
 18 15  1  0
  1 19  1  6
  2 20  1  0
  3 21  1  0
  3 22  1  0
  6 23  1  0
  7 24  1  0
  8 25  1  0
  9 26  1  0
 13 27  1  0
 13 28  1  0
 14 29  1  0
 14 30  1  0
 16 31  1  0
 16 32  1  0
 16 33  1  0
 17 34  1  0
 17 35  1  0
 17 36  1  0
 18 37  1  0
 18 38  1  0
 18 39  1  0
M  CHG  1  14   1
M  END
$$$$
=
     RDKit          3D

 25 25  0  0  0  0  0  0  0  0999 V2000
   19.8460   15.1280    5.4930 C   0  0  2  0  0  0  0  0  0  0  0  0
   19.4780   15.8930    4.2080 C   0  0  0  0  0  0  0  0  0  0  0  0
   18.8880   17.2350    4.5670 N   0  0  0  0  0  4  0  0  0  0  0  0
   17.7680   17.1620    5.5700 C   0  0  0  0  0  0  0  0  0  0  0  0
   17.5850   15.7300    6.0900 C   0  0  0  0  0  0  0  0  0  0  0  0
   18.8220   15.1420    6.4990 O   0  0  0  0  0  0  0  0  0  0  0  0
   21.0940   15.7880    6.0610 C   0  0  0  0  0  0  0  0  0  0  0  0
   21.3830   15.7110    7.2520 O   0  0  0  0  0  0  0  0  0  0  0  0
   21.7980   16.4330    5.1010 O   0  0  0  0  0  0  0  0  0  0  0  0
   22.2350   18.7480    4.5410 C   0  0  0  0  0  0  0  0  0  0  0  0
   22.5080   17.6140    5.5120 C   0  0  0  0  0  0  0  0  0  0  0  0
   19.9945   14.0718    5.2238 H   0  0  0  0  0  0  0  0  0  0  0  0
   20.3821   16.0419    3.5994 H   0  0  0  0  0  0  0  0  0  0  0  0
   18.7399   15.3114    3.6362 H   0  0  0  0  0  0  0  0  0  0  0  0
   19.6366   17.8235    4.9595 H   0  0  0  0  0  0  0  0  0  0  0  0
   18.4887   17.6264    3.7020 H   0  0  0  0  0  0  0  0  0  0  0  0
   18.0001   17.8248    6.4167 H   0  0  0  0  0  0  0  0  0  0  0  0
   16.8363   17.4766    5.0770 H   0  0  0  0  0  0  0  0  0  0  0  0
   16.9007   15.7505    6.9510 H   0  0  0  0  0  0  0  0  0  0  0  0
   17.1772   15.1221    5.2690 H   0  0  0  0  0  0  0  0  0  0  0  0
   22.0137   19.6671    5.1035 H   0  0  0  0  0  0  0  0  0  0  0  0
   23.1199   18.9096    3.9079 H   0  0  0  0  0  0  0  0  0  0  0  0
   21.3735   18.4892    3.9079 H   0  0  0  0  0  0  0  0  0  0  0  0
   22.1746   17.9078    6.5182 H   0  0  0  0  0  0  0  0  0  0  0  0
   23.5871   17.4008    5.5240 H   0  0  0  0  0  0  0  0  0  0  0  0
  2  1  1  0
  3  2  1  0
  4  3  1  0
  5  4  1  0
  6  5  1  0
  6  1  1  0
  7  1  1  0
  8  7  2  0
  9  7  1  0
 11  9  1  0
 11 10  1  0
  1 12  1  6
  2 13  1  0
  2 14  1  0
  3 15  1  0
  3 16  1  0
  4 17  1  0
  4 18  1  0
  5 19  1  0
  5 20  1  0
 10 21  1  0
 10 22  1  0
 10 23  1  0
 11 24  1  0
 11 25  1  0
M  CHG  1   3   1
M  END
$$$$
=
     RDKit          3D

 36 37  0  0  0  0  0  0  0  0999 V2000
   18.2540   15.0810    4.9720 N   0  0  0  0  0  4  0  0  0  0  0  0
   19.7300   14.8190    4.9280 C   0  0  0  0  0  0  0  0  0  0  0  0
   23.4630   18.6260    5.1050 C   0  0  0  0  0  0  0  0  0  0  0  0
   22.2510   17.8200    4.7730 C   0  0  0  0  0  0  0  0  0  0  0  0
   21.2510   18.1130    3.8690 C   0  0  0  0  0  0  0  0  0  0  0  0
   20.2540   17.0960    3.8140 C   0  0  0  0  0  0  0  0  0  0  0  0
   20.5230   16.0570    4.6830 C   0  0  0  0  0  0  0  0  0  0  0  0
   21.9790   16.3220    5.5470 S   0  0  0  0  0  0  0  0  0  0  0  0
   17.7630   15.6660    6.2570 C   0  0  0  0  0  0  0  0  0  0  0  0
   16.2430   15.7890    6.2530 C   0  0  0  0  0  0  0  0  0  0  0  0
   15.6780   16.1550    4.8770 C   0  0  0  0  0  0  0  0  0  0  0  0
   14.2350   15.1360    4.4450 S   0  0  0  0  0  0  0  0  0  0  0  0
   15.0130   13.8660    3.5670 C   0  0  0  0  0  0  0  0  0  0  0  0
   16.2900   13.7970    3.2650 N   0  0  0  0  0  0  0  0  0  0  0  0
   16.4410   12.6290    2.5570 N   0  0  0  0  0  0  0  0  0  0  0  0
   15.2810   11.9970    2.4260 N   0  0  0  0  0  0  0  0  0  0  0  0
   14.3810   12.7690    3.0620 N   0  0  0  0  0  0  0  0  0  0  0  0
   12.9990   12.3850    3.1270 C   0  0  0  0  0  0  0  0  0  0  0  0
   18.0212   15.7355    4.2115 H   0  0  0  0  0  0  0  0  0  0  0  0
   17.7923   14.1656    4.8732 H   0  0  0  0  0  0  0  0  0  0  0  0
   20.0402   14.3862    5.8905 H   0  0  0  0  0  0  0  0  0  0  0  0
   19.9219   14.1288    4.0933 H   0  0  0  0  0  0  0  0  0  0  0  0
   23.5686   18.6962    6.1977 H   0  0  0  0  0  0  0  0  0  0  0  0
   24.3540   18.1399    4.6810 H   0  0  0  0  0  0  0  0  0  0  0  0
   23.3593   19.6357    4.6810 H   0  0  0  0  0  0  0  0  0  0  0  0
   21.2259   19.0283    3.2594 H   0  0  0  0  0  0  0  0  0  0  0  0
   19.3732   17.1342    3.1562 H   0  0  0  0  0  0  0  0  0  0  0  0
   18.0695   15.0154    7.0893 H   0  0  0  0  0  0  0  0  0  0  0  0
   18.1966   16.6701    6.3745 H   0  0  0  0  0  0  0  0  0  0  0  0
   15.8122   14.8260    6.5645 H   0  0  0  0  0  0  0  0  0  0  0  0
   15.9757   16.6004    6.9460 H   0  0  0  0  0  0  0  0  0  0  0  0
   15.3767   17.2129    4.8860 H   0  0  0  0  0  0  0  0  0  0  0  0
   16.4615   15.9728    4.1268 H   0  0  0  0  0  0  0  0  0  0  0  0
   12.6913   12.2995    4.1796 H   0  0  0  0  0  0  0  0  0  0  0  0
   12.3830   13.1460    2.6256 H   0  0  0  0  0  0  0  0  0  0  0  0
   12.8639   11.4153    2.6256 H   0  0  0  0  0  0  0  0  0  0  0  0
  2  1  1  0
  4  3  1  0
  5  4  2  0
  6  5  1  0
  7  2  1  0
  7  6  2  0
  8  7  1  0
  8  4  1  0
  9  1  1  0
 10  9  1  0
 11 10  1  0
 12 11  1  0
 13 12  1  0
 14 13  2  0
 15 14  1  0
 16 15  2  0
 17 16  1  0
 17 13  1  0
 18 17  1  0
  1 19  1  0
  1 20  1  0
  2 21  1  0
  2 22  1  0
  3 23  1  0
  3 24  1  0
  3 25  1  0
  5 26  1  0
  6 27  1  0
  9 28  1  0
  9 29  1  0
 10 30  1  0
 10 31  1  0
 11 32  1  0
 11 33  1  0
 18 34  1  0
 18 35  1  0
 18 36  1  0
M  CHG  1   1   1
M  END
$$$$
=
     RDKit          3D

 38 39  0  0  0  0  0  0  0  0999 V2000
   20.3660   16.5310    4.1940 C   0  0  1  0  0  0  0  0  0  0  0  0
   21.2250   17.1780    5.3330 C   0  0  0  0  0  0  0  0  0  0  0  0
   21.7880   16.1560    6.2810 N   0  0  0  0  0  4  0  0  0  0  0  0
   20.7460   15.2680    6.8970 C   0  0  0  0  0  0  0  0  0  0  0  0
   19.9260   14.5520    5.8080 C   0  0  0  0  0  0  0  0  0  0  0  0
   19.3160   15.5390    4.7950 N   0  0  2  0  0  4  0  0  0  0  0  0
   19.6450   17.6190    3.3880 C   0  0  0  0  0  0  0  0  0  0  0  0
   19.6760   17.4190    1.8730 C   0  0  0  0  0  0  0  0  0  0  0  0
   20.8680   18.0250    1.4160 O   0  0  0  0  0  0  0  0  0  0  0  0
   18.5350   14.7600    3.7100 C   0  0  0  0  0  0  0  0  0  0  0  0
   17.0420   14.8130    3.9040 C   0  0  0  0  0  0  0  0  0  0  0  0
   16.2080   13.8680    3.2810 C   0  0  0  0  0  0  0  0  0  0  0  0
   14.8270   13.9020    3.4890 C   0  0  0  0  0  0  0  0  0  0  0  0
   14.2770   14.8770    4.3100 C   0  0  0  0  0  0  0  0  0  0  0  0
   15.0820   15.8290    4.9240 C   0  0  0  0  0  0  0  0  0  0  0  0
   16.4630   15.8020    4.7210 C   0  0  0  0  0  0  0  0  0  0  0  0
   12.9560   14.9010    4.5130 F   0  0  0  0  0  0  0  0  0  0  0  0
   21.0411   15.9750    3.5268 H   0  0  0  0  0  0  0  0  0  0  0  0
   22.0583   17.7314    4.8753 H   0  0  0  0  0  0  0  0  0  0  0  0
   20.5667   17.8432    5.9111 H   0  0  0  0  0  0  0  0  0  0  0  0
   22.4549   15.5652    5.7642 H   0  0  0  0  0  0  0  0  0  0  0  0
   22.2368   16.6732    7.0504 H   0  0  0  0  0  0  0  0  0  0  0  0
   21.2408   14.5159    7.5291 H   0  0  0  0  0  0  0  0  0  0  0  0
   20.0663   15.8875    7.5006 H   0  0  0  0  0  0  0  0  0  0  0  0
   20.5846   13.8543    5.2701 H   0  0  0  0  0  0  0  0  0  0  0  0
   19.0988   14.0216    6.3024 H   0  0  0  0  0  0  0  0  0  0  0  0
   18.6513   16.1420    5.3005 H   0  0  0  0  0  0  0  0  0  0  0  0
   18.5931   17.6425    3.7089 H   0  0  0  0  0  0  0  0  0  0  0  0
   20.1800   18.5591    3.5879 H   0  0  0  0  0  0  0  0  0  0  0  0
   19.6773   16.3460    1.6306 H   0  0  0  0  0  0  0  0  0  0  0  0
   18.7921   17.8647    1.3933 H   0  0  0  0  0  0  0  0  0  0  0  0
   21.4154   18.3033    2.1925 H   0  0  0  0  0  0  0  0  0  0  0  0
   18.7759   15.1917    2.7274 H   0  0  0  0  0  0  0  0  0  0  0  0
   18.8379   13.7049    3.7817 H   0  0  0  0  0  0  0  0  0  0  0  0
   16.6447   13.0987    2.6271 H   0  0  0  0  0  0  0  0  0  0  0  0
   14.1775   13.1586    3.0038 H   0  0  0  0  0  0  0  0  0  0  0  0
   14.6331   16.6003    5.5671 H   0  0  0  0  0  0  0  0  0  0  0  0
   17.1017   16.5574    5.2020 H   0  0  0  0  0  0  0  0  0  0  0  0
  2  1  1  0
  3  2  1  0
  4  3  1  0
  5  4  1  0
  6  5  1  0
  6  1  1  0
  7  1  1  0
  8  7  1  0
  9  8  1  0
 10  6  1  0
 11 10  1  0
 12 11  2  0
 13 12  1  0
 14 13  2  0
 15 14  1  0
 16 15  2  0
 16 11  1  0
 17 14  1  0
  1 18  1  6
  2 19  1  0
  2 20  1  0
  3 21  1  0
  3 22  1  0
  4 23  1  0
  4 24  1  0
  5 25  1  0
  5 26  1  0
  6 27  1  1
  7 28  1  0
  7 29  1  0
  8 30  1  0
  8 31  1  0
  9 32  1  0
 10 33  1  0
 10 34  1  0
 12 35  1  0
 13 36  1  0
 15 37  1  0
 16 38  1  0
M  CHG  2   3   1   6   1
M  END
$$$$
=
     RDKit          3D

 36 38  0  0  0  0  0  0  0  0999 V2000
   18.7910   19.2130    6.1490 O   0  0  0  0  0  0  0  0  0  0  0  0
   19.4420   18.3400    5.5910 C   0  0  0  0  0  0  0  0  0  0  0  0
   20.5690   18.6280    4.6290 C   0  0  0  0  0  0  0  0  0  0  0  0
   20.7140   17.6090    3.4990 C   0  0  0  0  0  0  0  0  0  0  0  0
   20.3450   16.1720    3.8660 C   0  0  1  0  0  0  0  0  0  0  0  0
   20.0210   15.9280    5.3530 C   0  0  2  0  0  0  0  0  0  0  0  0
   19.1860   17.0210    5.8480 N   0  0  0  0  0  0  0  0  0  0  0  0
   21.2680   15.7610    6.2190 C   0  0  0  0  0  0  0  0  0  0  0  0
   19.1920   14.6300    5.3050 C   0  0  0  0  0  0  0  0  0  0  0  0
   18.5090   14.6050    3.9260 C   0  0  2  0  0  0  0  0  0  0  0  0
   19.0280   15.8230    3.2170 N   0  0  0  0  0  4  0  0  0  0  0  0
   17.0050   14.5540    3.9050 C   0  0  0  0  0  0  0  0  0  0  0  0
   16.2700   15.4980    4.6410 C   0  0  0  0  0  0  0  0  0  0  0  0
   14.8740   15.4550    4.6670 C   0  0  0  0  0  0  0  0  0  0  0  0
   14.1930   14.4670    3.9630 C   0  0  0  0  0  0  0  0  0  0  0  0
   14.9040   13.5210    3.2320 C   0  0  0  0  0  0  0  0  0  0  0  0
   16.3010   13.5610    3.2030 C   0  0  0  0  0  0  0  0  0  0  0  0
   20.3930   19.6165    4.1797 H   0  0  0  0  0  0  0  0  0  0  0  0
   21.4993   18.5808    5.2140 H   0  0  0  0  0  0  0  0  0  0  0  0
   20.0643   17.9258    2.6699 H   0  0  0  0  0  0  0  0  0  0  0  0
   21.7827   17.5923    3.2388 H   0  0  0  0  0  0  0  0  0  0  0  0
   21.2283   15.5939    3.5568 H   0  0  0  0  0  0  0  0  0  0  0  0
   18.3623   16.7858    6.4199 H   0  0  0  0  0  0  0  0  0  0  0  0
   20.9845   15.7990    7.2812 H   0  0  0  0  0  0  0  0  0  0  0  0
   21.7396   14.7917    5.9998 H   0  0  0  0  0  0  0  0  0  0  0  0
   21.9780   16.5721    5.9998 H   0  0  0  0  0  0  0  0  0  0  0  0
   19.8478   13.7546    5.4212 H   0  0  0  0  0  0  0  0  0  0  0  0
   18.4522   14.5975    6.1184 H   0  0  0  0  0  0  0  0  0  0  0  0
   18.7608   13.6537    3.4344 H   0  0  0  0  0  0  0  0  0  0  0  0
   19.1676   15.6195    2.2170 H   0  0  0  0  0  0  0  0  0  0  0  0
   18.3613   16.6051    3.2862 H   0  0  0  0  0  0  0  0  0  0  0  0
   16.8001   16.2806    5.2037 H   0  0  0  0  0  0  0  0  0  0  0  0
   14.3122   16.2035    5.2450 H   0  0  0  0  0  0  0  0  0  0  0  0
   13.0937   14.4340    3.9844 H   0  0  0  0  0  0  0  0  0  0  0  0
   14.3657   12.7396    2.6755 H   0  0  0  0  0  0  0  0  0  0  0  0
   16.8551   12.8071    2.6245 H   0  0  0  0  0  0  0  0  0  0  0  0
  2  1  2  0
  3  2  1  0
  4  3  1  0
  5  4  1  0
  6  5  1  0
  7  6  1  0
  7  2  1  0
  6  8  1  1
  9  6  1  0
 10  9  1  0
 11 10  1  0
 11  5  1  0
 12 10  1  0
 13 12  2  0
 14 13  1  0
 15 14  2  0
 16 15  1  0
 17 16  2  0
 17 12  1  0
  3 18  1  0
  3 19  1  0
  4 20  1  0
  4 21  1  0
  5 22  1  6
  7 23  1  0
  8 24  1  0
  8 25  1  0
  8 26  1  0
  9 27  1  0
  9 28  1  0
 10 29  1  6
 11 30  1  0
 11 31  1  0
 13 32  1  0
 14 33  1  0
 15 34  1  0
 16 35  1  0
 17 36  1  0
M  CHG  1  11   1
M  END
$$$$
=
     RDKit          3D

 39 39  0  0  0  0  0  0  0  0999 V2000
   18.3820   16.9690    4.3750 C   0  0  0  0  0  0  0  0  0  0  0  0
   18.1500   15.5830    3.8140 C   0  0  0  0  0  0  0  0  0  0  0  0
   19.0740   14.9620    3.2930 O   0  0  0  0  0  0  0  0  0  0  0  0
   16.7880   14.9790    3.8910 C   0  0  0  0  0  0  0  0  0  0  0  0
   15.8290   15.5960    4.7050 C   0  0  0  0  0  0  0  0  0  0  0  0
   14.5370   15.0690    4.8120 C   0  0  0  0  0  0  0  0  0  0  0  0
   14.1910   13.9190    4.1070 C   0  0  0  0  0  0  0  0  0  0  0  0
   15.1470   13.3020    3.2960 C   0  0  0  0  0  0  0  0  0  0  0  0
   16.4410   13.8240    3.1840 C   0  0  0  0  0  0  0  0  0  0  0  0
   12.9740   13.2990    4.1190 O   0  0  0  0  0  0  0  0  0  0  0  0
   12.5860   12.6110    2.9350 C   0  0  0  0  0  0  0  0  0  0  0  0
   19.4200   17.6810    3.5140 C   0  0  0  0  0  0  0  0  0  0  0  0
   20.4510   18.3320    4.3880 N   0  0  0  0  0  4  0  0  0  0  0  0
   21.7890   17.6000    4.4040 C   0  0  0  0  0  0  0  0  0  0  0  0
   22.3630   17.5470    5.8100 C   0  0  0  0  0  0  0  0  0  0  0  0
   23.3150   18.2430    6.1420 O   0  0  0  0  0  0  0  0  0  0  0  0
   21.7020   16.6480    6.5750 O   0  0  0  0  0  0  0  0  0  0  0  0
   20.2340   14.7220    6.6600 C   0  0  0  0  0  0  0  0  0  0  0  0
   21.4020   15.3850    5.9540 C   0  0  0  0  0  0  0  0  0  0  0  0
   17.4393   17.5357    4.3617 H   0  0  0  0  0  0  0  0  0  0  0  0
   18.7427   16.8967    5.4116 H   0  0  0  0  0  0  0  0  0  0  0  0
   16.0944   16.5043    5.2659 H   0  0  0  0  0  0  0  0  0  0  0  0
   13.7935   15.5640    5.4541 H   0  0  0  0  0  0  0  0  0  0  0  0
   14.8789   12.3930    2.7375 H   0  0  0  0  0  0  0  0  0  0  0  0
   17.1827   13.3268    2.5415 H   0  0  0  0  0  0  0  0  0  0  0  0
   12.0623   11.6823    3.2055 H   0  0  0  0  0  0  0  0  0  0  0  0
   11.9156   13.2507    2.3422 H   0  0  0  0  0  0  0  0  0  0  0  0
   13.4803   12.3683    2.3422 H   0  0  0  0  0  0  0  0  0  0  0  0
   19.9104   16.9496    2.8548 H   0  0  0  0  0  0  0  0  0  0  0  0
   18.9204   18.4518    2.9088 H   0  0  0  0  0  0  0  0  0  0  0  0
   20.6086   19.2909    4.0466 H   0  0  0  0  0  0  0  0  0  0  0  0
   20.0855   18.3138    5.3508 H   0  0  0  0  0  0  0  0  0  0  0  0
   21.6422   16.5737    4.0363 H   0  0  0  0  0  0  0  0  0  0  0  0
   22.4939   18.1434    3.7576 H   0  0  0  0  0  0  0  0  0  0  0  0
   20.3714   14.8000    7.7486 H   0  0  0  0  0  0  0  0  0  0  0  0
   19.2985   15.2238    6.3716 H   0  0  0  0  0  0  0  0  0  0  0  0
   20.1853   13.6616    6.3716 H   0  0  0  0  0  0  0  0  0  0  0  0
   22.2838   14.7304    6.0160 H   0  0  0  0  0  0  0  0  0  0  0  0
   21.1363   15.5557    4.9003 H   0  0  0  0  0  0  0  0  0  0  0  0
  2  1  1  0
  3  2  2  0
  4  2  1  0
  5  4  2  0
  6  5  1  0
  7  6  2  0
  8  7  1  0
  9  8  2  0
  9  4  1  0
 10  7  1  0
 11 10  1  0
 12  1  1  0
 13 12  1  0
 14 13  1  0
 15 14  1  0
 16 15  2  0
 17 15  1  0
 19 18  1  0
 19 17  1  0
  1 20  1  0
  1 21  1  0
  5 22  1  0
  6 23  1  0
  8 24  1  0
  9 25  1  0
 11 26  1  0
 11 27  1  0
 11 28  1  0
 12 29  1  0
 12 30  1  0
 13 31  1  0
 13 32  1  0
 14 33  1  0
 14 34  1  0
 18 35  1  0
 18 36  1  0
 18 37  1  0
 19 38  1  0
 19 39  1  0
M  CHG  1  13   1
M  END
$$$$
=
     RDKit          3D

 26 26  0  0  0  0  0  0  0  0999 V2000
   17.7430   14.8200    3.7240 N   0  0  0  0  0  0  0  0  0  0  0  0
   18.9170   14.2320    3.4320 N   0  0  0  0  0  0  0  0  0  0  0  0
   19.8860   15.0420    3.8200 N   0  0  0  0  0  0  0  0  0  0  0  0
   19.3160   16.1720    4.3480 C   0  0  0  0  0  0  0  0  0  0  0  0
   17.9440   16.0600    4.2640 C   0  0  0  0  0  0  0  0  0  0  0  0
   20.2050   17.2550    4.8820 C   0  0  0  0  0  0  0  0  0  0  0  0
   21.2050   16.7230    5.9140 C   0  0  0  0  0  0  0  0  0  0  0  0
   19.3900   18.4140    5.4610 C   0  0  0  0  0  0  0  0  0  0  0  0
   21.0150   17.8160    3.7450 N   0  0  0  0  0  4  0  0  0  0  0  0
   16.4960   14.1570    3.4030 C   0  0  0  0  0  0  0  0  0  0  0  0
   15.6570   12.4270    2.0520 F   0  0  0  0  0  0  0  0  0  0  0  0
   16.6950   12.7530    2.8670 C   0  0  0  0  0  0  0  0  0  0  0  0
   17.1856   16.7986    4.5628 H   0  0  0  0  0  0  0  0  0  0  0  0
   20.8277   16.9237    6.9276 H   0  0  0  0  0  0  0  0  0  0  0  0
   21.3308   15.6388    5.7776 H   0  0  0  0  0  0  0  0  0  0  0  0
   22.1744   17.2246    5.7776 H   0  0  0  0  0  0  0  0  0  0  0  0
   19.4204   18.3707    6.5597 H   0  0  0  0  0  0  0  0  0  0  0  0
   19.8166   19.3687    5.1197 H   0  0  0  0  0  0  0  0  0  0  0  0
   18.3472   18.3355    5.1197 H   0  0  0  0  0  0  0  0  0  0  0  0
   21.8031   18.3619    4.1215 H   0  0  0  0  0  0  0  0  0  0  0  0
   21.3770   17.0437    3.1676 H   0  0  0  0  0  0  0  0  0  0  0  0
   20.4194   18.4265    3.1676 H   0  0  0  0  0  0  0  0  0  0  0  0
   15.8835   14.1009    4.3149 H   0  0  0  0  0  0  0  0  0  0  0  0
   16.0034   14.7446    2.6143 H   0  0  0  0  0  0  0  0  0  0  0  0
   16.7391   12.0431    3.7061 H   0  0  0  0  0  0  0  0  0  0  0  0
   17.6355   12.7079    2.2983 H   0  0  0  0  0  0  0  0  0  0  0  0
  2  1  1  0
  3  2  2  0
  4  3  1  0
  5  4  2  0
  5  1  1  0
  6  4  1  0
  7  6  1  0
  8  6  1  0
  9  6  1  0
 10  1  1  0
 12 11  1  0
 12 10  1  0
  5 13  1  0
  7 14  1  0
  7 15  1  0
  7 16  1  0
  8 17  1  0
  8 18  1  0
  8 19  1  0
  9 20  1  0
  9 21  1  0
  9 22  1  0
 10 23  1  0
 10 24  1  0
 12 25  1  0
 12 26  1  0
M  CHG  1   9   1
M  END
$$$$
=
     RDKit          3D

 55 58  0  0  0  0  0  0  0  0999 V2000
   19.1840   15.9870    3.5390 C   0  0  0  0  0  0  0  0  0  0  0  0
   19.2780   15.4850    2.4230 O   0  0  0  0  0  0  0  0  0  0  0  0
   18.0360   15.9040    4.3360 N   0  0  0  0  0  0  0  0  0  0  0  0
   17.6960   16.9390    5.3180 C   0  0  0  0  0  0  0  0  0  0  0  0
   16.7720   16.4090    6.4100 C   0  0  0  0  0  0  0  0  0  0  0  0
   15.5320   15.7500    5.8140 C   0  0  0  0  0  0  0  0  0  0  0  0
   15.9370   14.6440    4.8300 C   0  0  2  0  0  0  0  0  0  0  0  0
   16.8950   15.1820    3.7570 C   0  0  0  0  0  0  0  0  0  0  0  0
   23.6020   18.7200    5.4750 N   0  0  0  0  0  0  0  0  0  0  0  0
   22.5100   18.0330    4.9950 C   0  0  0  0  0  0  0  0  0  0  0  0
   21.8650   18.5500    3.9450 N   0  0  0  0  0  0  0  0  0  0  0  0
   20.7920   17.8600    3.5060 C   0  0  0  0  0  0  0  0  0  0  0  0
   20.3620   16.6800    4.0710 C   0  0  0  0  0  0  0  0  0  0  0  0
   21.0660   16.2430    5.1760 C   0  0  0  0  0  0  0  0  0  0  0  0
   22.1490   16.9170    5.6410 N   0  0  0  0  0  0  0  0  0  0  0  0
   20.6830   15.0020    5.9250 C   0  0  0  0  0  0  0  0  0  0  0  0
   14.7340   13.9530    4.2220 C   0  0  0  0  0  0  0  0  0  0  0  0
   14.8580   13.0440    3.1690 C   0  0  0  0  0  0  0  0  0  0  0  0
   13.7110   12.4440    2.6490 C   0  0  0  0  0  0  0  0  0  0  0  0
   12.4720   12.7770    3.1860 C   0  0  0  0  0  0  0  0  0  0  0  0
   12.4300   13.6620    4.2480 C   0  0  0  0  0  0  0  0  0  0  0  0
   13.5280   14.2690    4.7620 N   0  0  0  0  0  0  0  0  0  0  0  0
   11.2500   12.1400    2.6750 C   0  0  0  0  0  0  0  0  0  0  0  0
   11.3640   11.0730    2.0790 O   0  0  0  0  0  0  0  0  0  0  0  0
   10.0400   12.7830    2.8650 N   0  0  0  0  0  0  0  0  0  0  0  0
    8.8150   12.2160    2.3270 C   0  0  0  0  0  0  0  0  0  0  0  0
    7.8550   13.3940    2.2310 C   0  0  0  0  0  0  0  0  0  0  0  0
    8.3100   14.2980    3.3680 C   0  0  0  0  0  0  0  0  0  0  0  0
    9.8240   14.1450    3.3400 C   0  0  0  0  0  0  0  0  0  0  0  0
   18.6229   17.3049    5.7838 H   0  0  0  0  0  0  0  0  0  0  0  0
   17.1696   17.7481    4.7905 H   0  0  0  0  0  0  0  0  0  0  0  0
   17.3174   15.6677    7.0125 H   0  0  0  0  0  0  0  0  0  0  0  0
   16.4497   17.2557    7.0338 H   0  0  0  0  0  0  0  0  0  0  0  0
   14.9291   15.3126    6.6234 H   0  0  0  0  0  0  0  0  0  0  0  0
   14.9464   16.5102    5.2763 H   0  0  0  0  0  0  0  0  0  0  0  0
   16.4789   13.8769    5.4027 H   0  0  0  0  0  0  0  0  0  0  0  0
   17.2755   14.3354    3.1666 H   0  0  0  0  0  0  0  0  0  0  0  0
   16.3330   15.8902    3.1304 H   0  0  0  0  0  0  0  0  0  0  0  0
   24.1261   18.3544    6.2829 H   0  0  0  0  0  0  0  0  0  0  0  0
   23.8950   19.5996    5.0263 H   0  0  0  0  0  0  0  0  0  0  0  0
   20.2299   18.2619    2.6501 H   0  0  0  0  0  0  0  0  0  0  0  0
   20.7421   15.1936    7.0066 H   0  0  0  0  0  0  0  0  0  0  0  0
   19.6547   14.7158    5.6590 H   0  0  0  0  0  0  0  0  0  0  0  0
   21.3711   14.1861    5.6590 H   0  0  0  0  0  0  0  0  0  0  0  0
   15.8483   12.8040    2.7546 H   0  0  0  0  0  0  0  0  0  0  0  0
   13.7854   11.7179    1.8260 H   0  0  0  0  0  0  0  0  0  0  0  0
   11.4525   13.8856    4.7003 H   0  0  0  0  0  0  0  0  0  0  0  0
    8.9933   11.7787    1.3336 H   0  0  0  0  0  0  0  0  0  0  0  0
    8.4189   11.4059    2.9570 H   0  0  0  0  0  0  0  0  0  0  0  0
    7.9483   13.9023    1.2599 H   0  0  0  0  0  0  0  0  0  0  0  0
    6.7978   13.0997    2.3069 H   0  0  0  0  0  0  0  0  0  0  0  0
    8.0144   15.3418    3.1860 H   0  0  0  0  0  0  0  0  0  0  0  0
    7.8648   14.0327    4.3382 H   0  0  0  0  0  0  0  0  0  0  0  0
   10.2766   14.8740    2.6518 H   0  0  0  0  0  0  0  0  0  0  0  0
   10.2828   14.3248    4.3235 H   0  0  0  0  0  0  0  0  0  0  0  0
  2  1  2  0
  3  1  1  0
  4  3  1  0
  5  4  1  0
  6  5  1  0
  7  6  1  0
  8  7  1  0
  8  3  1  0
 10  9  1  0
 11 10  2  0
 12 11  1  0
 13  1  1  0
 13 12  2  0
 14 13  1  0
 15 14  2  0
 15 10  1  0
 16 14  1  0
 17  7  1  0
 18 17  2  0
 19 18  1  0
 20 19  2  0
 21 20  1  0
 22 21  2  0
 22 17  1  0
 23 20  1  0
 24 23  2  0
 25 23  1  0
 26 25  1  0
 27 26  1  0
 28 27  1  0
 29 28  1  0
 29 25  1  0
  4 30  1  0
  4 31  1  0
  5 32  1  0
  5 33  1  0
  6 34  1  0
  6 35  1  0
  7 36  1  1
  8 37  1  0
  8 38  1  0
  9 39  1  0
  9 40  1  0
 12 41  1  0
 16 42  1  0
 16 43  1  0
 16 44  1  0
 18 45  1  0
 19 46  1  0
 21 47  1  0
 26 48  1  0
 26 49  1  0
 27 50  1  0
 27 51  1  0
 28 52  1  0
 28 53  1  0
 29 54  1  0
 29 55  1  0
M  END
$$$$
=
     RDKit          3D

 24 24  0  0  0  0  0  0  0  0999 V2000
   20.3850   17.5970    4.5530 C   0  0  0  0  0  0  0  0  0  0  0  0
   19.5300   17.8340    3.4890 C   0  0  0  0  0  0  0  0  0  0  0  0
   19.2620   16.5680    2.9420 C   0  0  0  0  0  0  0  0  0  0  0  0
   19.8930   15.6010    3.6020 N   0  0  0  0  0  0  0  0  0  0  0  0
   20.5270   16.2280    4.6040 N   0  0  0  0  0  0  0  0  0  0  0  0
   21.2660   15.4160    5.5580 C   0  0  0  0  0  0  0  0  0  0  0  0
   20.3610   14.8100    6.6150 C   0  0  0  0  0  0  0  0  0  0  0  0
   21.0150   18.5420    5.4970 C   0  0  0  0  0  0  0  0  0  0  0  0
   23.5090   18.4190    5.1690 C   0  0  0  0  0  0  0  0  0  0  0  0
   22.2440   19.1580    4.9200 N   0  0  0  0  0  4  0  0  0  0  0  0
   19.1438   18.8052    3.1460 H   0  0  0  0  0  0  0  0  0  0  0  0
   18.6094   16.3972    2.0731 H   0  0  0  0  0  0  0  0  0  0  0  0
   21.7711   14.6033    5.0155 H   0  0  0  0  0  0  0  0  0  0  0  0
   21.9913   16.0679    6.0669 H   0  0  0  0  0  0  0  0  0  0  0  0
   20.7425   15.0655    7.6146 H   0  0  0  0  0  0  0  0  0  0  0  0
   19.3426   15.2089    6.4982 H   0  0  0  0  0  0  0  0  0  0  0  0
   20.3420   13.7164    6.4982 H   0  0  0  0  0  0  0  0  0  0  0  0
   20.2958   19.3387    5.7376 H   0  0  0  0  0  0  0  0  0  0  0  0
   21.3018   17.9848    6.4011 H   0  0  0  0  0  0  0  0  0  0  0  0
   23.6711   18.3243    6.2529 H   0  0  0  0  0  0  0  0  0  0  0  0
   23.4431   17.4173    4.7192 H   0  0  0  0  0  0  0  0  0  0  0  0
   24.3492   18.9683    4.7192 H   0  0  0  0  0  0  0  0  0  0  0  0
   22.1141   19.2299    3.9008 H   0  0  0  0  0  0  0  0  0  0  0  0
   22.3513   20.0678    5.3908 H   0  0  0  0  0  0  0  0  0  0  0  0
  2  1  2  0
  3  2  1  0
  4  3  2  0
  5  4  1  0
  5  1  1  0
  6  5  1  0
  7  6  1  0
  8  1  1  0
 10  8  1  0
 10  9  1  0
  2 11  1  0
  3 12  1  0
  6 13  1  0
  6 14  1  0
  7 15  1  0
  7 16  1  0
  7 17  1  0
  8 18  1  0
  8 19  1  0
  9 20  1  0
  9 21  1  0
  9 22  1  0
 10 23  1  0
 10 24  1  0
M  CHG  1  10   1
M  END
$$$$
=
     RDKit          3D

 44 45  0  0  0  0  0  0  0  0999 V2000
   15.0300   15.1090    5.3430 C   0  0  0  0  0  0  0  0  0  0  0  0
   16.3340   15.7990    5.1680 C   0  0  0  0  0  0  0  0  0  0  0  0
   16.8250   16.7070    6.0780 C   0  0  0  0  0  0  0  0  0  0  0  0
   17.9690   17.3890    5.9060 N   0  0  0  0  0  0  0  0  0  0  0  0
   18.6860   17.1590    4.7950 C   0  0  0  0  0  0  0  0  0  0  0  0
   18.2890   16.2750    3.8650 N   0  0  0  0  0  0  0  0  0  0  0  0
   17.1400   15.6100    4.0700 C   0  0  0  0  0  0  0  0  0  0  0  0
   19.8310   17.8700    4.5850 N   0  0  0  0  0  0  0  0  0  0  0  0
   20.7630   17.4940    3.5380 C   0  0  0  0  0  0  0  0  0  0  0  0
   21.9270   18.4550    3.7590 C   0  0  0  0  0  0  0  0  0  0  0  0
   21.9600   18.5960    5.2740 C   0  0  0  0  0  0  0  0  0  0  0  0
   20.4820   18.5880    5.6700 C   0  0  0  0  0  0  0  0  0  0  0  0
   14.0300   15.4040    4.2650 N   0  0  0  0  0  4  0  0  0  0  0  0
   12.7190   14.6830    4.3080 C   0  0  0  0  0  0  0  0  0  0  0  0
   12.8760   13.1640    4.2420 C   0  0  0  0  0  0  0  0  0  0  0  0
   13.5830   12.6080    2.9990 C   0  0  0  0  0  0  0  0  0  0  0  0
   15.0110   12.1150    3.2240 C   0  0  0  0  0  0  0  0  0  0  0  0
   16.0440   12.7510    2.3020 C   0  0  0  0  0  0  0  0  0  0  0  0
   17.2630   12.0480    2.4800 O   0  0  0  0  0  0  0  0  0  0  0  0
   15.2126   14.0243    5.3570 H   0  0  0  0  0  0  0  0  0  0  0  0
   14.5992   15.4803    6.2846 H   0  0  0  0  0  0  0  0  0  0  0  0
   16.2482   16.8841    6.9977 H   0  0  0  0  0  0  0  0  0  0  0  0
   16.8260   14.8724    3.3168 H   0  0  0  0  0  0  0  0  0  0  0  0
   21.0855   16.4485    3.6516 H   0  0  0  0  0  0  0  0  0  0  0  0
   20.3317   17.5580    2.5281 H   0  0  0  0  0  0  0  0  0  0  0  0
   22.8686   18.0318    3.3792 H   0  0  0  0  0  0  0  0  0  0  0  0
   21.8077   19.4139    3.2334 H   0  0  0  0  0  0  0  0  0  0  0  0
   22.4944   17.7524    5.7351 H   0  0  0  0  0  0  0  0  0  0  0  0
   22.4861   19.5029    5.6069 H   0  0  0  0  0  0  0  0  0  0  0  0
   20.0928   19.6138    5.7490 H   0  0  0  0  0  0  0  0  0  0  0  0
   20.3089   18.1209    6.6507 H   0  0  0  0  0  0  0  0  0  0  0  0
   13.8264   16.4129    4.3036 H   0  0  0  0  0  0  0  0  0  0  0  0
   14.4786   15.0719    3.3993 H   0  0  0  0  0  0  0  0  0  0  0  0
   12.2056   14.9429    5.2455 H   0  0  0  0  0  0  0  0  0  0  0  0
   12.1404   14.9948    3.4259 H   0  0  0  0  0  0  0  0  0  0  0  0
   13.4513   12.8477    5.1246 H   0  0  0  0  0  0  0  0  0  0  0  0
   11.8520   12.7644    4.2009 H   0  0  0  0  0  0  0  0  0  0  0  0
   12.9884   11.7641    2.6192 H   0  0  0  0  0  0  0  0  0  0  0  0
   13.6597   13.4476    2.2925 H   0  0  0  0  0  0  0  0  0  0  0  0
   15.2930   12.3377    4.2636 H   0  0  0  0  0  0  0  0  0  0  0  0
   15.0117   11.0373    3.0037 H   0  0  0  0  0  0  0  0  0  0  0  0
   15.7136   12.6713    1.2558 H   0  0  0  0  0  0  0  0  0  0  0  0
   16.1727   13.8171    2.5405 H   0  0  0  0  0  0  0  0  0  0  0  0
   17.4451   11.9430    3.4474 H   0  0  0  0  0  0  0  0  0  0  0  0
  2  1  1  0
  3  2  2  0
  4  3  1  0
  5  4  2  0
  6  5  1  0
  7  2  1  0
  7  6  2  0
  8  5  1  0
  9  8  1  0
 10  9  1  0
 11 10  1  0
 12  8  1  0
 12 11  1  0
 13  1  1  0
 14 13  1  0
 15 14  1  0
 16 15  1  0
 17 16  1  0
 18 17  1  0
 19 18  1  0
  1 20  1  0
  1 21  1  0
  3 22  1  0
  7 23  1  0
  9 24  1  0
  9 25  1  0
 10 26  1  0
 10 27  1  0
 11 28  1  0
 11 29  1  0
 12 30  1  0
 12 31  1  0
 13 32  1  0
 13 33  1  0
 14 34  1  0
 14 35  1  0
 15 36  1  0
 15 37  1  0
 16 38  1  0
 16 39  1  0
 17 40  1  0
 17 41  1  0
 18 42  1  0
 18 43  1  0
 19 44  1  0
M  CHG  1  13   1
M  END
$$$$
=
     RDKit          3D

 32 33  0  0  0  0  0  0  0  0999 V2000
   17.8630   15.1660    4.9440 N   0  0  0  0  0  4  0  0  0  0  0  0
   17.1060   15.3690    3.6890 C   0  0  0  0  0  0  0  0  0  0  0  0
   16.1090   12.5530    2.9260 C   0  0  0  0  0  0  0  0  0  0  0  0
   15.3020   13.6050    3.5120 N   0  0  0  0  0  0  0  0  0  0  0  0
   13.9670   13.4740    3.7900 C   0  0  0  0  0  0  0  0  0  0  0  0
   13.5240   14.6460    4.3550 C   0  0  0  0  0  0  0  0  0  0  0  0
   14.6280   15.5250    4.4140 C   0  0  0  0  0  0  0  0  0  0  0  0
   15.7230   14.8700    3.8730 C   0  0  0  0  0  0  0  0  0  0  0  0
   19.2320   14.5940    4.7820 C   0  0  0  0  0  0  0  0  0  0  0  0
   20.2700   15.5990    5.1760 C   0  0  0  0  0  0  0  0  0  0  0  0
   21.1610   15.5720    6.2680 C   0  0  0  0  0  0  0  0  0  0  0  0
   21.9150   16.7130    6.1390 C   0  0  0  0  0  0  0  0  0  0  0  0
   21.4690   17.3600    5.0170 N   0  0  0  0  0  0  0  0  0  0  0  0
   20.4370   16.6970    4.4140 N   0  0  0  0  0  0  0  0  0  0  0  0
   21.9900   18.6150    4.4670 C   0  0  0  0  0  0  0  0  0  0  0  0
   23.2970   18.7960    4.7920 F   0  0  0  0  0  0  0  0  0  0  0  0
   21.9210   18.6140    3.1080 F   0  0  0  0  0  0  0  0  0  0  0  0
   17.9538   16.0794    5.4114 H   0  0  0  0  0  0  0  0  0  0  0  0
   17.3291   14.4732    5.4879 H   0  0  0  0  0  0  0  0  0  0  0  0
   17.0815   16.4407    3.4425 H   0  0  0  0  0  0  0  0  0  0  0  0
   17.5926   14.8206    2.8689 H   0  0  0  0  0  0  0  0  0  0  0  0
   16.5683   11.9543    3.7264 H   0  0  0  0  0  0  0  0  0  0  0  0
   15.4729   11.9066    2.3035 H   0  0  0  0  0  0  0  0  0  0  0  0
   16.8982   12.9999    2.3035 H   0  0  0  0  0  0  0  0  0  0  0  0
   13.3536   12.5821    3.5942 H   0  0  0  0  0  0  0  0  0  0  0  0
   12.5007   14.8596    4.6973 H   0  0  0  0  0  0  0  0  0  0  0  0
   14.6201   16.5482    4.8178 H   0  0  0  0  0  0  0  0  0  0  0  0
   19.3300   13.7032    5.4199 H   0  0  0  0  0  0  0  0  0  0  0  0
   19.3818   14.3228    3.7265 H   0  0  0  0  0  0  0  0  0  0  0  0
   21.2361   14.8045    7.0525 H   0  0  0  0  0  0  0  0  0  0  0  0
   22.7225   17.0439    6.8087 H   0  0  0  0  0  0  0  0  0  0  0  0
   21.3726   19.4190    4.8941 H   0  0  0  0  0  0  0  0  0  0  0  0
  2  1  1  0
  4  3  1  0
  5  4  1  0
  6  5  2  0
  7  6  1  0
  8  7  2  0
  8  4  1  0
  8  2  1  0
  9  1  1  0
 10  9  1  0
 11 10  1  0
 12 11  2  0
 13 12  1  0
 14 10  2  0
 14 13  1  0
 15 13  1  0
 16 15  1  0
 17 15  1  0
  1 18  1  0
  1 19  1  0
  2 20  1  0
  2 21  1  0
  3 22  1  0
  3 23  1  0
  3 24  1  0
  5 25  1  0
  6 26  1  0
  7 27  1  0
  9 28  1  0
  9 29  1  0
 11 30  1  0
 12 31  1  0
 15 32  1  0
M  CHG  1   1   1
M  END
$$$$
=
     RDKit          3D

 39 39  0  0  0  0  0  0  0  0999 V2000
   14.5320   12.2140    2.7190 N   0  0  0  0  0  0  0  0  0  0  0  0
   15.6730   12.8950    3.0800 C   0  0  0  0  0  0  0  0  0  0  0  0
   15.6140   14.1400    3.5710 N   0  0  0  0  0  0  0  0  0  0  0  0
   16.7690   14.7650    3.8440 C   0  0  0  0  0  0  0  0  0  0  0  0
   18.0060   14.2040    3.6270 C   0  0  0  0  0  0  0  0  0  0  0  0
   17.9680   12.9100    3.1540 C   0  0  0  0  0  0  0  0  0  0  0  0
   16.8310   12.2580    2.8700 N   0  0  0  0  0  0  0  0  0  0  0  0
   12.1030   12.4540    2.5230 C   0  0  0  0  0  0  0  0  0  0  0  0
   13.3090   12.5140    3.4450 C   0  0  0  0  0  0  0  0  0  0  0  0
   19.2740   14.9520    3.8220 C   0  0  0  0  0  0  0  0  0  0  0  0
   19.4070   16.0810    2.8310 N   0  0  0  0  0  4  0  0  0  0  0  0
   19.9660   17.3820    3.3410 C   0  0  0  0  0  0  0  0  0  0  0  0
   19.7880   17.5770    4.8720 C   0  0  0  0  0  0  0  0  0  0  0  0
   21.0920   17.8600    5.6060 N   0  0  0  0  0  4  0  0  0  0  0  0
   22.0660   18.6260    4.7210 C   0  0  0  0  0  0  0  0  0  0  0  0
   21.7780   16.6320    6.1660 C   0  0  0  0  0  0  0  0  0  0  0  0
   14.5447   11.5165    1.9612 H   0  0  0  0  0  0  0  0  0  0  0  0
   16.7246   15.7807    4.2640 H   0  0  0  0  0  0  0  0  0  0  0  0
   18.9217   12.3836    3.0012 H   0  0  0  0  0  0  0  0  0  0  0  0
   11.1833   12.4082    3.1248 H   0  0  0  0  0  0  0  0  0  0  0  0
   12.0816   13.3522    1.8883 H   0  0  0  0  0  0  0  0  0  0  0  0
   12.1709   11.5581    1.8883 H   0  0  0  0  0  0  0  0  0  0  0  0
   13.3838   13.5237    3.8750 H   0  0  0  0  0  0  0  0  0  0  0  0
   13.1804   11.7661    4.2413 H   0  0  0  0  0  0  0  0  0  0  0  0
   19.2915   15.3665    4.8407 H   0  0  0  0  0  0  0  0  0  0  0  0
   20.1124   14.2567    3.6680 H   0  0  0  0  0  0  0  0  0  0  0  0
   20.0224   15.7559    2.0717 H   0  0  0  0  0  0  0  0  0  0  0  0
   18.4414   16.3001    2.5472 H   0  0  0  0  0  0  0  0  0  0  0  0
   21.0408   17.4136    3.1089 H   0  0  0  0  0  0  0  0  0  0  0  0
   19.4074   18.1898    2.8455 H   0  0  0  0  0  0  0  0  0  0  0  0
   19.1049   18.4231    5.0377 H   0  0  0  0  0  0  0  0  0  0  0  0
   19.3900   16.6333    5.2734 H   0  0  0  0  0  0  0  0  0  0  0  0
   20.8163   18.4358    6.4143 H   0  0  0  0  0  0  0  0  0  0  0  0
   22.7743   19.1831    5.3518 H   0  0  0  0  0  0  0  0  0  0  0  0
   22.6189   17.9182    4.0859 H   0  0  0  0  0  0  0  0  0  0  0  0
   21.5084   19.3301    4.0859 H   0  0  0  0  0  0  0  0  0  0  0  0
   21.7571   16.6695    7.2652 H   0  0  0  0  0  0  0  0  0  0  0  0
   21.2536   15.7291    5.8199 H   0  0  0  0  0  0  0  0  0  0  0  0
   22.8218   16.6052    5.8199 H   0  0  0  0  0  0  0  0  0  0  0  0
  2  1  1  0
  3  2  2  0
  4  3  1  0
  5  4  2  0
  6  5  1  0
  7  2  1  0
  7  6  2  0
  9  8  1  0
  9  1  1  0
 10  5  1  0
 11 10  1  0
 12 11  1  0
 13 12  1  0
 14 13  1  0
 15 14  1  0
 16 14  1  0
  1 17  1  0
  4 18  1  0
  6 19  1  0
  8 20  1  0
  8 21  1  0
  8 22  1  0
  9 23  1  0
  9 24  1  0
 10 25  1  0
 10 26  1  0
 11 27  1  0
 11 28  1  0
 12 29  1  0
 12 30  1  0
 13 31  1  0
 13 32  1  0
 14 33  1  0
 15 34  1  0
 15 35  1  0
 15 36  1  0
 16 37  1  0
 16 38  1  0
 16 39  1  0
M  CHG  2  11   1  14   1
M  END
$$$$
=
     RDKit          3D

 34 35  0  0  0  0  0  0  0  0999 V2000
   17.9200   15.5360    4.0600 N   0  0  0  0  0  0  0  0  0  0  0  0
   18.9490   14.6760    4.0400 N   0  0  0  0  0  0  0  0  0  0  0  0
   20.0080   15.4170    4.3530 C   0  0  0  0  0  0  0  0  0  0  0  0
   19.6760   16.7770    4.5540 C   0  0  0  0  0  0  0  0  0  0  0  0
   18.3060   16.8170    4.3540 C   0  0  0  0  0  0  0  0  0  0  0  0
   20.6110   17.8740    4.8940 C   0  0  2  0  0  0  0  0  0  0  0  0
   21.6190   18.2240    3.8040 C   0  0  0  0  0  0  0  0  0  0  0  0
   22.7500   18.8680    4.5830 C   0  0  0  0  0  0  0  0  0  0  0  0
   22.8730   17.9820    5.8050 C   0  0  0  0  0  0  0  0  0  0  0  0
   21.4740   17.5310    6.0800 N   0  0  0  0  0  4  0  0  0  0  0  0
   16.5690   15.0580    3.8100 C   0  0  0  0  0  0  0  0  0  0  0  0
   15.7590   15.3390    6.2030 C   0  0  0  0  0  0  0  0  0  0  0  0
   15.5140   15.6880    4.7330 C   0  0  0  0  0  0  0  0  0  0  0  0
   14.1170   15.2250    4.3160 C   0  0  0  0  0  0  0  0  0  0  0  0
   21.0284   15.0168    4.4453 H   0  0  0  0  0  0  0  0  0  0  0  0
   17.6564   17.7024    4.4185 H   0  0  0  0  0  0  0  0  0  0  0  0
   19.9252   18.7153    5.0725 H   0  0  0  0  0  0  0  0  0  0  0  0
   21.9639   17.3209    3.2791 H   0  0  0  0  0  0  0  0  0  0  0  0
   21.2039   18.8761    3.0214 H   0  0  0  0  0  0  0  0  0  0  0  0
   23.6823   18.8672    3.9991 H   0  0  0  0  0  0  0  0  0  0  0  0
   22.5589   19.9225    4.8308 H   0  0  0  0  0  0  0  0  0  0  0  0
   23.5257   17.1212    5.5976 H   0  0  0  0  0  0  0  0  0  0  0  0
   23.3197   18.5085    6.6613 H   0  0  0  0  0  0  0  0  0  0  0  0
   21.1150   18.0086    6.9190 H   0  0  0  0  0  0  0  0  0  0  0  0
   21.4596   16.5137    6.2405 H   0  0  0  0  0  0  0  0  0  0  0  0
   16.3043   15.2921    2.7683 H   0  0  0  0  0  0  0  0  0  0  0  0
   16.5672   13.9761    4.0085 H   0  0  0  0  0  0  0  0  0  0  0  0
   15.2454   16.0706    6.8441 H   0  0  0  0  0  0  0  0  0  0  0  0
   15.3687   14.3317    6.4107 H   0  0  0  0  0  0  0  0  0  0  0  0
   16.8389   15.3638    6.4107 H   0  0  0  0  0  0  0  0  0  0  0  0
   15.5915   16.7806    4.6317 H   0  0  0  0  0  0  0  0  0  0  0  0
   13.5138   15.0251    5.2139 H   0  0  0  0  0  0  0  0  0  0  0  0
   13.6338   16.0110    3.7171 H   0  0  0  0  0  0  0  0  0  0  0  0
   14.1989   14.3059    3.7171 H   0  0  0  0  0  0  0  0  0  0  0  0
  2  1  1  0
  3  2  2  0
  4  3  1  0
  5  1  1  0
  5  4  2  0
  6  4  1  0
  7  6  1  0
  8  7  1  0
  9  8  1  0
 10  6  1  0
 10  9  1  0
 11  1  1  0
 13 12  1  0
 13 11  1  0
 14 13  1  0
  3 15  1  0
  5 16  1  0
  6 17  1  1
  7 18  1  0
  7 19  1  0
  8 20  1  0
  8 21  1  0
  9 22  1  0
  9 23  1  0
 10 24  1  0
 10 25  1  0
 11 26  1  0
 11 27  1  0
 12 28  1  0
 12 29  1  0
 12 30  1  0
 13 31  1  0
 14 32  1  0
 14 33  1  0
 14 34  1  0
M  CHG  1  10   1
M  END
$$$$
=
     RDKit          3D

 33 33  0  0  0  0  0  0  0  0999 V2000
   19.9230   14.9370    5.4010 C   0  0  0  0  0  0  0  0  0  0  0  0
   21.3370   15.5000    5.6020 C   0  0  2  0  0  0  0  0  0  0  0  0
   21.6240   15.5980    7.0090 O   0  0  0  0  0  0  0  0  0  0  0  0
   21.5200   16.9090    5.0080 C   0  0  0  0  0  0  0  0  0  0  0  0
   19.7340   18.6050    5.5290 C   0  0  0  0  0  0  0  0  0  0  0  0
   20.1650   17.4730    4.6790 N   0  0  0  0  0  4  0  0  0  0  0  0
   19.6260   14.7210    4.0280 O   0  0  0  0  0  0  0  0  0  0  0  0
   18.3680   14.3130    3.6830 C   0  0  0  0  0  0  0  0  0  0  0  0
   17.2030   15.0750    3.7440 C   0  0  0  0  0  0  0  0  0  0  0  0
   15.9700   14.5190    3.3700 C   0  0  0  0  0  0  0  0  0  0  0  0
   15.8970   13.1980    2.9300 C   0  0  0  0  0  0  0  0  0  0  0  0
   17.0660   12.4410    2.8610 C   0  0  0  0  0  0  0  0  0  0  0  0
   18.2940   12.9960    3.2290 C   0  0  0  0  0  0  0  0  0  0  0  0
   14.7660   12.5390    2.5440 O   0  0  0  0  0  0  0  0  0  0  0  0
   13.5740   12.8090    3.2730 C   0  0  0  0  0  0  0  0  0  0  0  0
   19.8425   13.9796    5.9366 H   0  0  0  0  0  0  0  0  0  0  0  0
   19.2054   15.6733    5.7920 H   0  0  0  0  0  0  0  0  0  0  0  0
   22.0153   14.8065    5.0834 H   0  0  0  0  0  0  0  0  0  0  0  0
   20.8263   15.3256    7.5283 H   0  0  0  0  0  0  0  0  0  0  0  0
   22.0229   17.5572    5.7408 H   0  0  0  0  0  0  0  0  0  0  0  0
   22.1348   16.8551    4.0975 H   0  0  0  0  0  0  0  0  0  0  0  0
   19.8392   18.3288    6.5885 H   0  0  0  0  0  0  0  0  0  0  0  0
   20.3606   19.4834    5.3152 H   0  0  0  0  0  0  0  0  0  0  0  0
   18.6819   18.8443    5.3152 H   0  0  0  0  0  0  0  0  0  0  0  0
   20.1827   17.7966    3.7013 H   0  0  0  0  0  0  0  0  0  0  0  0
   19.4894   16.7140    4.8472 H   0  0  0  0  0  0  0  0  0  0  0  0
   17.2501   16.1189    4.0875 H   0  0  0  0  0  0  0  0  0  0  0  0
   15.0561   15.1287    3.4243 H   0  0  0  0  0  0  0  0  0  0  0  0
   17.0208   11.3982    2.5139 H   0  0  0  0  0  0  0  0  0  0  0  0
   19.2095   12.3900    3.1603 H   0  0  0  0  0  0  0  0  0  0  0  0
   13.7850   12.7612    4.3515 H   0  0  0  0  0  0  0  0  0  0  0  0
   13.2062   13.8132    3.0155 H   0  0  0  0  0  0  0  0  0  0  0  0
   12.8094   12.0613    3.0155 H   0  0  0  0  0  0  0  0  0  0  0  0
  2  1  1  0
  3  2  1  0
  4  2  1  0
  6  4  1  0
  6  5  1  0
  7  1  1  0
  8  7  1  0
  9  8  2  0
 10  9  1  0
 11 10  2  0
 12 11  1  0
 13 12  2  0
 13  8  1  0
 14 11  1  0
 15 14  1  0
  1 16  1  0
  1 17  1  0
  2 18  1  6
  3 19  1  0
  4 20  1  0
  4 21  1  0
  5 22  1  0
  5 23  1  0
  5 24  1  0
  6 25  1  0
  6 26  1  0
  9 27  1  0
 10 28  1  0
 12 29  1  0
 13 30  1  0
 15 31  1  0
 15 32  1  0
 15 33  1  0
M  CHG  1   6   1
M  END
$$$$
=
     RDKit          3D

 21 22  0  0  0  0  0  0  0  0999 V2000
   21.6140   16.4390    5.0540 C   0  0  2  0  0  0  0  0  0  0  0  0
   21.0930   17.9130    5.1130 C   0  0  0  0  0  0  0  0  0  0  0  0
   19.6230   18.0870    4.6270 C   0  0  0  0  0  0  0  0  0  0  0  0
   18.7250   16.8460    4.8440 C   0  0  2  0  0  0  0  0  0  0  0  0
   19.5260   15.8850    5.5360 O   0  0  0  0  0  0  0  0  0  0  0  0
   20.4800   15.4930    4.4920 C   0  0  1  0  0  0  0  0  0  0  0  0
   19.5640   15.1620    3.4420 O   0  0  0  0  0  0  0  0  0  0  0  0
   18.4120   16.0280    3.6040 C   0  0  0  0  0  0  0  0  0  0  0  0
   21.9080   16.0050    6.4730 N   0  0  0  0  0  4  0  0  0  0  0  0
   22.5037   16.3802    4.4098 H   0  0  0  0  0  0  0  0  0  0  0  0
   21.1560   18.2604    6.1548 H   0  0  0  0  0  0  0  0  0  0  0  0
   21.7248   18.5007    4.4307 H   0  0  0  0  0  0  0  0  0  0  0  0
   19.1785   18.9325    5.1725 H   0  0  0  0  0  0  0  0  0  0  0  0
   19.6700   18.2534    3.5407 H   0  0  0  0  0  0  0  0  0  0  0  0
   17.8108   17.2460    5.3068 H   0  0  0  0  0  0  0  0  0  0  0  0
   21.1659   14.7319    4.0916 H   0  0  0  0  0  0  0  0  0  0  0  0
   18.2900   16.6813    2.7275 H   0  0  0  0  0  0  0  0  0  0  0  0
   17.4733   15.4628    3.7008 H   0  0  0  0  0  0  0  0  0  0  0  0
   21.4638   16.6607    7.1316 H   0  0  0  0  0  0  0  0  0  0  0  0
   21.5339   15.0577    6.6268 H   0  0  0  0  0  0  0  0  0  0  0  0
   22.9264   16.0011    6.6268 H   0  0  0  0  0  0  0  0  0  0  0  0
  2  1  1  0
  3  2  1  0
  4  3  1  0
  5  4  1  0
  6  5  1  0
  6  1  1  0
  7  6  1  0
  8  7  1  0
  8  4  1  0
  9  1  1  0
  1 10  1  6
  2 11  1  0
  2 12  1  0
  3 13  1  0
  3 14  1  0
  4 15  1  1
  6 16  1  1
  8 17  1  0
  8 18  1  0
  9 19  1  0
  9 20  1  0
  9 21  1  0
M  CHG  1   9   1
M  END
$$$$
=
     RDKit          3D

 35 36  0  0  0  0  0  0  0  0999 V2000
   18.4640   14.5030    3.6090 C   0  0  2  0  0  0  0  0  0  0  0  0
   13.8710   13.0020    2.9430 F   0  0  0  0  0  0  0  0  0  0  0  0
   14.7110   13.8720    3.5170 C   0  0  0  0  0  0  0  0  0  0  0  0
   14.2110   14.8630    4.3500 C   0  0  0  0  0  0  0  0  0  0  0  0
   15.0920   15.7600    4.9480 C   0  0  0  0  0  0  0  0  0  0  0  0
   16.4660   15.6590    4.7100 C   0  0  0  0  0  0  0  0  0  0  0  0
   16.9790   14.6610    3.8620 C   0  0  0  0  0  0  0  0  0  0  0  0
   16.0760   13.7620    3.2700 C   0  0  0  0  0  0  0  0  0  0  0  0
   18.7270   13.1620    3.0320 N   0  0  0  0  0  4  0  0  0  0  0  0
   19.3220   14.7460    4.8680 C   0  0  0  0  0  0  0  0  0  0  0  0
   20.5290   15.6870    4.6620 C   0  0  0  0  0  0  0  0  0  0  0  0
   21.3990   15.8380    5.9290 C   0  0  0  0  0  0  0  0  0  0  0  0
   22.1250   17.1830    5.9840 C   0  0  0  0  0  0  0  0  0  0  0  0
   22.4300   17.5920    4.6590 O   0  0  0  0  0  0  0  0  0  0  0  0
   21.2630   17.9990    3.9410 C   0  0  0  0  0  0  0  0  0  0  0  0
   20.0670   17.0810    4.2070 C   0  0  0  0  0  0  0  0  0  0  0  0
   18.7629   15.2801    2.8901 H   0  0  0  0  0  0  0  0  0  0  0  0
   13.1295   14.9390    4.5359 H   0  0  0  0  0  0  0  0  0  0  0  0
   14.7062   16.5499    5.6092 H   0  0  0  0  0  0  0  0  0  0  0  0
   17.1544   16.3689    5.1919 H   0  0  0  0  0  0  0  0  0  0  0  0
   16.4500   12.9672    2.6079 H   0  0  0  0  0  0  0  0  0  0  0  0
   18.8606   12.4809    3.7931 H   0  0  0  0  0  0  0  0  0  0  0  0
   17.9263   12.8751    2.4511 H   0  0  0  0  0  0  0  0  0  0  0  0
   19.5768   13.1988    2.4511 H   0  0  0  0  0  0  0  0  0  0  0  0
   18.6755   15.1844    5.6424 H   0  0  0  0  0  0  0  0  0  0  0  0
   19.7387   13.7679    5.1502 H   0  0  0  0  0  0  0  0  0  0  0  0
   21.1450   15.2178    3.8808 H   0  0  0  0  0  0  0  0  0  0  0  0
   20.7516   15.7501    6.8140 H   0  0  0  0  0  0  0  0  0  0  0  0
   22.1627   15.0466    5.9064 H   0  0  0  0  0  0  0  0  0  0  0  0
   21.4784   17.9330    6.4630 H   0  0  0  0  0  0  0  0  0  0  0  0
   23.0521   17.0841    6.5677 H   0  0  0  0  0  0  0  0  0  0  0  0
   20.9985   19.0220    4.2468 H   0  0  0  0  0  0  0  0  0  0  0  0
   21.4941   17.9476    2.8668 H   0  0  0  0  0  0  0  0  0  0  0  0
   19.4788   16.9806    3.2829 H   0  0  0  0  0  0  0  0  0  0  0  0
   19.4571   17.5252    5.0074 H   0  0  0  0  0  0  0  0  0  0  0  0
  3  2  1  0
  4  3  2  0
  5  4  1  0
  6  5  2  0
  7  6  1  0
  7  1  1  0
  8  3  1  0
  8  7  2  0
  9  1  1  0
 10  1  1  0
 11 10  1  0
 12 11  1  0
 13 12  1  0
 14 13  1  0
 15 14  1  0
 16 11  1  0
 16 15  1  0
  1 17  1  6
  4 18  1  0
  5 19  1  0
  6 20  1  0
  8 21  1  0
  9 22  1  0
  9 23  1  0
  9 24  1  0
 10 25  1  0
 10 26  1  0
 11 27  1  0
 12 28  1  0
 12 29  1  0
 13 30  1  0
 13 31  1  0
 15 32  1  0
 15 33  1  0
 16 34  1  0
 16 35  1  0
M  CHG  1   9   1
M  END
$$$$
=
     RDKit          3D

 14 14  0  0  0  0  0  0  0  0999 V2000
   14.6080   12.1180    2.7450 N   0  0  0  0  0  0  0  0  0  0  0  0
   15.8030   12.7890    2.9870 C   0  0  0  0  0  0  0  0  0  0  0  0
   16.9350   12.0840    2.8310 N   0  0  0  0  0  0  0  0  0  0  0  0
   18.0830   12.7590    3.1000 C   0  0  0  0  0  0  0  0  0  0  0  0
   18.1190   14.0950    3.4920 C   0  0  0  0  0  0  0  0  0  0  0  0
   16.9870   14.7980    3.6560 N   0  0  0  0  0  0  0  0  0  0  0  0
   15.8380   14.1180    3.4060 C   0  0  0  0  0  0  0  0  0  0  0  0
   19.3130   14.7560    3.7660 N   0  0  0  0  0  0  0  0  0  0  0  0
   13.7100   12.6114    2.8498 H   0  0  0  0  0  0  0  0  0  0  0  0
   14.6216   11.1280    2.4611 H   0  0  0  0  0  0  0  0  0  0  0  0
   19.0372   12.2204    3.0028 H   0  0  0  0  0  0  0  0  0  0  0  0
   14.8822   14.6453    3.5417 H   0  0  0  0  0  0  0  0  0  0  0  0
   19.2999   15.7450    4.0535 H   0  0  0  0  0  0  0  0  0  0  0  0
   20.2096   14.2561    3.6813 H   0  0  0  0  0  0  0  0  0  0  0  0
  2  1  1  0
  3  2  2  0
  4  3  1  0
  5  4  2  0
  6  5  1  0
  7  2  1  0
  7  6  2  0
  8  5  1  0
  1  9  1  0
  1 10  1  0
  4 11  1  0
  7 12  1  0
  8 13  1  0
  8 14  1  0
M  END
$$$$
=
     RDKit          3D

 26 27  0  0  0  0  0  0  0  0999 V2000
   20.4030   17.5550    3.5390 C   0  0  1  0  0  0  0  0  0  0  0  0
   21.6110   18.4780    3.4200 C   0  0  0  0  0  0  0  0  0  0  0  0
   21.9920   18.7830    4.8360 N   0  0  0  0  0  4  0  0  0  0  0  0
   20.7970   18.5030    5.7060 C   0  0  0  0  0  0  0  0  0  0  0  0
   19.6620   18.1490    4.7420 C   0  0  2  0  0  0  0  0  0  0  0  0
   18.6890   17.2390    5.4010 C   0  0  0  0  0  0  0  0  0  0  0  0
   17.3500   17.2980    5.7310 C   0  0  0  0  0  0  0  0  0  0  0  0
   17.0380   16.0640    6.3530 C   0  0  0  0  0  0  0  0  0  0  0  0
   18.2000   15.3310    6.3610 C   0  0  0  0  0  0  0  0  0  0  0  0
   19.2030   16.0340    5.7780 O   0  0  0  0  0  0  0  0  0  0  0  0
   19.5870   17.5340    2.2500 C   0  0  0  0  0  0  0  0  0  0  0  0
   20.4630   17.6320    1.1390 O   0  0  0  0  0  0  0  0  0  0  0  0
   20.6482   16.4932    3.6887 H   0  0  0  0  0  0  0  0  0  0  0  0
   22.4358   17.9731    2.8958 H   0  0  0  0  0  0  0  0  0  0  0  0
   21.3871   19.3870    2.8424 H   0  0  0  0  0  0  0  0  0  0  0  0
   22.7812   18.1863    5.1225 H   0  0  0  0  0  0  0  0  0  0  0  0
   22.2792   19.7680    4.9264 H   0  0  0  0  0  0  0  0  0  0  0  0
   21.0032   17.6606    6.3826 H   0  0  0  0  0  0  0  0  0  0  0  0
   20.5411   19.3666    6.3374 H   0  0  0  0  0  0  0  0  0  0  0  0
   19.0343   18.9948    4.4247 H   0  0  0  0  0  0  0  0  0  0  0  0
   16.6620   18.1364    5.5475 H   0  0  0  0  0  0  0  0  0  0  0  0
   16.0601   15.7544    6.7504 H   0  0  0  0  0  0  0  0  0  0  0  0
   18.3023   14.3191    6.7801 H   0  0  0  0  0  0  0  0  0  0  0  0
   19.0203   16.5932    2.1892 H   0  0  0  0  0  0  0  0  0  0  0  0
   18.8870   18.3825    2.2432 H   0  0  0  0  0  0  0  0  0  0  0  0
   21.3935   17.7361    1.4606 H   0  0  0  0  0  0  0  0  0  0  0  0
  2  1  1  0
  3  2  1  0
  4  3  1  0
  5  1  1  0
  5  4  1  0
  6  5  1  0
  7  6  2  0
  8  7  1  0
  9  8  2  0
 10  9  1  0
 10  6  1  0
 11  1  1  0
 12 11  1  0
  1 13  1  1
  2 14  1  0
  2 15  1  0
  3 16  1  0
  3 17  1  0
  4 18  1  0
  4 19  1  0
  5 20  1  6
  7 21  1  0
  8 22  1  0
  9 23  1  0
 11 24  1  0
 11 25  1  0
 12 26  1  0
M  CHG  1   3   1
M  END
$$$$
=
     RDKit          3D

 30 31  0  0  0  0  0  0  0  0999 V2000
   19.6850   15.7950    4.2590 C   0  0  2  0  0  0  0  0  0  0  0  0
   18.2610   15.7050    4.7750 C   0  0  0  0  0  0  0  0  0  0  0  0
   17.9370   15.9630    6.1030 C   0  0  0  0  0  0  0  0  0  0  0  0
   16.6060   15.8540    6.4920 C   0  0  0  0  0  0  0  0  0  0  0  0
   15.6440   15.4900    5.5560 C   0  0  0  0  0  0  0  0  0  0  0  0
   16.0500   15.2420    4.2570 C   0  0  0  0  0  0  0  0  0  0  0  0
   17.3370   15.3320    3.8430 N   0  0  0  0  0  0  0  0  0  0  0  0
   20.4850   16.9280    4.9270 C   0  0  0  0  0  0  0  0  0  0  0  0
   20.9830   18.0010    3.9510 C   0  0  0  0  0  0  0  0  0  0  0  0
   22.1510   18.6840    4.6580 C   0  0  0  0  0  0  0  0  0  0  0  0
   22.5630   17.7600    5.7990 C   0  0  0  0  0  0  0  0  0  0  0  0
   21.7940   16.4660    5.5740 C   0  0  0  0  0  0  0  0  0  0  0  0
   19.6120   16.0690    2.7850 N   0  0  0  0  0  4  0  0  0  0  0  0
   20.1992   14.8499    4.4878 H   0  0  0  0  0  0  0  0  0  0  0  0
   18.7144   16.2463    6.8278 H   0  0  0  0  0  0  0  0  0  0  0  0
   16.3160   16.0546    7.5340 H   0  0  0  0  0  0  0  0  0  0  0  0
   14.5855   15.4014    5.8418 H   0  0  0  0  0  0  0  0  0  0  0  0
   15.2857   14.9559    3.5194 H   0  0  0  0  0  0  0  0  0  0  0  0
   19.7478   17.3056    5.6509 H   0  0  0  0  0  0  0  0  0  0  0  0
   21.3194   17.5394    3.0109 H   0  0  0  0  0  0  0  0  0  0  0  0
   20.1889   18.7161    3.6904 H   0  0  0  0  0  0  0  0  0  0  0  0
   22.9894   18.8235    3.9597 H   0  0  0  0  0  0  0  0  0  0  0  0
   21.8644   19.6776    5.0330 H   0  0  0  0  0  0  0  0  0  0  0  0
   23.6466   17.5730    5.7698 H   0  0  0  0  0  0  0  0  0  0  0  0
   22.3397   18.2012    6.7816 H   0  0  0  0  0  0  0  0  0  0  0  0
   21.6004   15.9540    6.5281 H   0  0  0  0  0  0  0  0  0  0  0  0
   22.3454   15.7456    4.9519 H   0  0  0  0  0  0  0  0  0  0  0  0
   19.3498   17.0531    2.6313 H   0  0  0  0  0  0  0  0  0  0  0  0
   20.5307   15.8874    2.3561 H   0  0  0  0  0  0  0  0  0  0  0  0
   18.9054   15.4544    2.3561 H   0  0  0  0  0  0  0  0  0  0  0  0
  2  1  1  0
  3  2  2  0
  4  3  1  0
  5  4  2  0
  6  5  1  0
  7  6  2  0
  7  2  1  0
  8  1  1  0
  9  8  1  0
 10  9  1  0
 11 10  1  0
 12  8  1  0
 12 11  1  0
 13  1  1  0
  1 14  1  6
  3 15  1  0
  4 16  1  0
  5 17  1  0
  6 18  1  0
  8 19  1  0
  9 20  1  0
  9 21  1  0
 10 22  1  0
 10 23  1  0
 11 24  1  0
 11 25  1  0
 12 26  1  0
 12 27  1  0
 13 28  1  0
 13 29  1  0
 13 30  1  0
M  CHG  1  13   1
M  END
$$$$
=
     RDKit          3D

 27 27  0  0  0  0  0  0  0  0999 V2000
   19.2880   16.1600    4.2620 S   0  0  0  0  0  6  0  0  0  0  0  0
   19.9080   15.0420    3.5880 O   0  0  0  0  0  0  0  0  0  0  0  0
   19.2690   17.4890    3.6830 O   0  0  0  0  0  0  0  0  0  0  0  0
   17.6110   15.6920    4.6130 C   0  0  0  0  0  0  0  0  0  0  0  0
   16.8170   15.1320    3.6100 C   0  0  0  0  0  0  0  0  0  0  0  0
   15.4950   14.7930    3.8970 C   0  0  0  0  0  0  0  0  0  0  0  0
   14.9810   15.0010    5.1780 C   0  0  0  0  0  0  0  0  0  0  0  0
   15.7870   15.5380    6.1820 C   0  0  0  0  0  0  0  0  0  0  0  0
   17.1110   15.8810    5.9060 C   0  0  0  0  0  0  0  0  0  0  0  0
   20.0390   16.3280    5.8890 C   0  0  1  0  0  0  0  0  0  0  0  0
   20.5970   14.9770    6.3390 C   0  0  0  0  0  0  0  0  0  0  0  0
   21.1190   17.4030    5.8130 C   0  0  0  0  0  0  0  0  0  0  0  0
   22.1100   17.1290    4.7270 N   0  0  0  0  0  4  0  0  0  0  0  0
   17.2296   14.9602    2.6049 H   0  0  0  0  0  0  0  0  0  0  0  0
   14.8563   14.3610    3.1126 H   0  0  0  0  0  0  0  0  0  0  0  0
   13.9350   14.7401    5.3969 H   0  0  0  0  0  0  0  0  0  0  0  0
   15.3785   15.6911    7.1918 H   0  0  0  0  0  0  0  0  0  0  0  0
   17.7545   16.2954    6.6961 H   0  0  0  0  0  0  0  0  0  0  0  0
   19.2948   16.6369    6.6378 H   0  0  0  0  0  0  0  0  0  0  0  0
   20.6143   14.9351    7.4381 H   0  0  0  0  0  0  0  0  0  0  0  0
   19.9589   14.1692    5.9513 H   0  0  0  0  0  0  0  0  0  0  0  0
   21.6191   14.8549    5.9513 H   0  0  0  0  0  0  0  0  0  0  0  0
   20.6399   18.3740    5.6193 H   0  0  0  0  0  0  0  0  0  0  0  0
   21.6593   17.4087    6.7711 H   0  0  0  0  0  0  0  0  0  0  0  0
   23.0172   16.8782    5.1453 H   0  0  0  0  0  0  0  0  0  0  0  0
   21.7736   16.3495    4.1439 H   0  0  0  0  0  0  0  0  0  0  0  0
   22.2218   17.9706    4.1439 H   0  0  0  0  0  0  0  0  0  0  0  0
  2  1  2  0
  3  1  2  0
  4  1  1  0
  5  4  2  0
  6  5  1  0
  7  6  2  0
  8  7  1  0
  9  8  2  0
  9  4  1  0
 10  1  1  0
 11 10  1  0
 12 10  1  0
 13 12  1  0
  5 14  1  0
  6 15  1  0
  7 16  1  0
  8 17  1  0
  9 18  1  0
 10 19  1  1
 11 20  1  0
 11 21  1  0
 11 22  1  0
 12 23  1  0
 12 24  1  0
 13 25  1  0
 13 26  1  0
 13 27  1  0
M  CHG  1  13   1
M  END
$$$$
=
     RDKit          3D

 38 38  0  0  0  0  0  0  0  0999 V2000
   16.3430   15.8610    5.7360 C   0  0  0  0  0  0  0  0  0  0  0  0
   15.8870   15.3650    6.7660 O   0  0  0  0  0  0  0  0  0  0  0  0
   15.9840   15.5730    4.4390 N   0  0  0  0  0  0  0  0  0  0  0  0
   15.0100   14.6420    4.0060 C   0  0  0  0  0  0  0  0  0  0  0  0
   13.6420   14.7530    4.2450 C   0  0  0  0  0  0  0  0  0  0  0  0
   12.7660   13.7680    3.7670 C   0  0  0  0  0  0  0  0  0  0  0  0
   13.2500   12.6720    3.0490 C   0  0  0  0  0  0  0  0  0  0  0  0
   14.6150   12.5540    2.8060 C   0  0  0  0  0  0  0  0  0  0  0  0
   15.4770   13.5350    3.2830 C   0  0  0  0  0  0  0  0  0  0  0  0
   16.7950   13.4220    3.0470 F   0  0  0  0  0  0  0  0  0  0  0  0
   17.4350   16.9260    5.8620 C   0  0  0  0  0  0  0  0  0  0  0  0
   18.7720   16.3670    5.4520 N   0  0  0  0  0  4  0  0  0  0  0  0
   19.1750   15.0730    6.0760 C   0  0  0  0  0  0  0  0  0  0  0  0
   20.6080   15.1410    6.5970 C   0  0  0  0  0  0  0  0  0  0  0  0
   21.5440   15.9280    5.6790 C   0  0  0  0  0  0  0  0  0  0  0  0
   22.3290   16.8160    6.4860 O   0  0  0  0  0  0  0  0  0  0  0  0
   21.7860   18.3420    4.6580 C   0  0  0  0  0  0  0  0  0  0  0  0
   22.7630   17.9780    5.7600 C   0  0  0  0  0  0  0  0  0  0  0  0
   16.4796   16.0932    3.7009 H   0  0  0  0  0  0  0  0  0  0  0  0
   13.2495   15.6125    4.8081 H   0  0  0  0  0  0  0  0  0  0  0  0
   11.6868   13.8593    3.9594 H   0  0  0  0  0  0  0  0  0  0  0  0
   12.5547   11.9050    2.6771 H   0  0  0  0  0  0  0  0  0  0  0  0
   15.0076   11.6944    2.2430 H   0  0  0  0  0  0  0  0  0  0  0  0
   17.1852   17.7782    5.2128 H   0  0  0  0  0  0  0  0  0  0  0  0
   17.4936   17.2507    6.9114 H   0  0  0  0  0  0  0  0  0  0  0  0
   18.7534   16.2294    4.4314 H   0  0  0  0  0  0  0  0  0  0  0  0
   19.4657   17.0542    5.7798 H   0  0  0  0  0  0  0  0  0  0  0  0
   18.4976   14.8510    6.9138 H   0  0  0  0  0  0  0  0  0  0  0  0
   19.1160   14.2824    5.3135 H   0  0  0  0  0  0  0  0  0  0  0  0
   20.5986   15.6246    7.5849 H   0  0  0  0  0  0  0  0  0  0  0  0
   20.9880   14.1099    6.6464 H   0  0  0  0  0  0  0  0  0  0  0  0
   22.2053   15.2339    5.1396 H   0  0  0  0  0  0  0  0  0  0  0  0
   20.9589   16.5020    4.9454 H   0  0  0  0  0  0  0  0  0  0  0  0
   20.8439   18.6930    5.1044 H   0  0  0  0  0  0  0  0  0  0  0  0
   22.2164   19.1401    4.0353 H   0  0  0  0  0  0  0  0  0  0  0  0
   21.5893   17.4568    4.0353 H   0  0  0  0  0  0  0  0  0  0  0  0
   23.7466   17.7730    5.3123 H   0  0  0  0  0  0  0  0  0  0  0  0
   22.8209   18.8223    6.4627 H   0  0  0  0  0  0  0  0  0  0  0  0
  2  1  2  0
  3  1  1  0
  4  3  1  0
  5  4  2  0
  6  5  1  0
  7  6  2  0
  8  7  1  0
  9  8  2  0
  9  4  1  0
 10  9  1  0
 11  1  1  0
 12 11  1  0
 13 12  1  0
 14 13  1  0
 15 14  1  0
 16 15  1  0
 18 17  1  0
 18 16  1  0
  3 19  1  0
  5 20  1  0
  6 21  1  0
  7 22  1  0
  8 23  1  0
 11 24  1  0
 11 25  1  0
 12 26  1  0
 12 27  1  0
 13 28  1  0
 13 29  1  0
 14 30  1  0
 14 31  1  0
 15 32  1  0
 15 33  1  0
 17 34  1  0
 17 35  1  0
 17 36  1  0
 18 37  1  0
 18 38  1  0
M  CHG  1  12   1
M  END
$$$$
=
     RDKit          3D

 38 39  0  0  0  0  0  0  0  0999 V2000
   27.8960   25.5950   13.7250 N   0  0  0  0  0  0  0  0  0  0  0  0
   26.9460   25.2840   14.7740 C   0  0  0  0  0  0  0  0  0  0  0  0
   26.0250   24.2680   14.0940 C   0  0  1  0  0  0  0  0  0  0  0  0
   25.9500   24.7900   12.6430 C   0  0  0  0  0  0  0  0  0  0  0  0
   27.3850   25.2740   12.4640 C   0  0  0  0  0  0  0  0  0  0  0  0
   27.9800   25.2920   11.4030 O   0  0  0  0  0  0  0  0  0  0  0  0
   24.9960   25.9900   12.5240 C   0  0  0  0  0  0  0  0  0  0  0  0
   25.5700   23.7350   11.6030 C   0  0  0  0  0  0  0  0  0  0  0  0
   26.6840   22.9100   14.1630 N   0  0  0  0  0  4  0  0  0  0  0  0
   29.9550   24.6050   14.7880 C   0  0  0  0  0  0  0  0  0  0  0  0
   29.3220   25.7760   14.0320 C   0  0  2  0  0  0  0  0  0  0  0  0
   29.5160   27.1300   14.7030 C   0  0  0  0  0  0  0  0  0  0  0  0
   28.7740   28.2580   14.3160 C   0  0  0  0  0  0  0  0  0  0  0  0
   29.0230   29.5060   14.8870 C   0  0  0  0  0  0  0  0  0  0  0  0
   30.0150   29.6470   15.8530 C   0  0  0  0  0  0  0  0  0  0  0  0
   30.7540   28.5380   16.2570 C   0  0  0  0  0  0  0  0  0  0  0  0
   30.5080   27.2880   15.6860 C   0  0  0  0  0  0  0  0  0  0  0  0
   27.4483   24.8432   15.6477 H   0  0  0  0  0  0  0  0  0  0  0  0
   26.4160   26.1663   15.1622 H   0  0  0  0  0  0  0  0  0  0  0  0
   25.0282   24.1641   14.5474 H   0  0  0  0  0  0  0  0  0  0  0  0
   24.7186   26.3390   13.5296 H   0  0  0  0  0  0  0  0  0  0  0  0
   25.4965   26.8037   11.9786 H   0  0  0  0  0  0  0  0  0  0  0  0
   24.0904   25.6858   11.9786 H   0  0  0  0  0  0  0  0  0  0  0  0
   25.2399   22.8186   12.1141 H   0  0  0  0  0  0  0  0  0  0  0  0
   24.7534   24.1182   10.9735 H   0  0  0  0  0  0  0  0  0  0  0  0
   26.4434   23.5095   10.9735 H   0  0  0  0  0  0  0  0  0  0  0  0
   26.8144   22.6413   15.1488 H   0  0  0  0  0  0  0  0  0  0  0  0
   26.0868   22.2143   13.6936 H   0  0  0  0  0  0  0  0  0  0  0  0
   27.6000   22.9486   13.6936 H   0  0  0  0  0  0  0  0  0  0  0  0
   29.8631   24.7751   15.8709 H   0  0  0  0  0  0  0  0  0  0  0  0
   29.4383   23.6721   14.5182 H   0  0  0  0  0  0  0  0  0  0  0  0
   31.0185   24.5263   14.5182 H   0  0  0  0  0  0  0  0  0  0  0  0
   29.8823   25.7752   13.0854 H   0  0  0  0  0  0  0  0  0  0  0  0
   27.9874   28.1560   13.5538 H   0  0  0  0  0  0  0  0  0  0  0  0
   28.4342   30.3805   14.5732 H   0  0  0  0  0  0  0  0  0  0  0  0
   30.2151   30.6334   16.2969 H   0  0  0  0  0  0  0  0  0  0  0  0
   31.5323   28.6470   17.0267 H   0  0  0  0  0  0  0  0  0  0  0  0
   31.0971   26.4171   16.0091 H   0  0  0  0  0  0  0  0  0  0  0  0
  2  1  1  0
  3  2  1  0
  4  3  1  0
  5  4  1  0
  5  1  1  0
  6  5  2  0
  7  4  1  0
  8  4  1  0
  9  3  1  0
 11 10  1  0
 11  1  1  0
 12 11  1  0
 13 12  2  0
 14 13  1  0
 15 14  2  0
 16 15  1  0
 17 12  1  0
 17 16  2  0
  2 18  1  0
  2 19  1  0
  3 20  1  1
  7 21  1  0
  7 22  1  0
  7 23  1  0
  8 24  1  0
  8 25  1  0
  8 26  1  0
  9 27  1  0
  9 28  1  0
  9 29  1  0
 10 30  1  0
 10 31  1  0
 10 32  1  0
 11 33  1  6
 13 34  1  0
 14 35  1  0
 15 36  1  0
 16 37  1  0
 17 38  1  0
M  CHG  1   9   1
M  END
$$$$
=
     RDKit          3D

 45 46  0  0  0  0  0  0  0  0999 V2000
   16.0510   15.7020    5.6970 C   0  0  0  0  0  0  0  0  0  0  0  0
   16.1520   15.4950    6.9010 O   0  0  0  0  0  0  0  0  0  0  0  0
   16.7130   16.7380    5.0670 N   0  0  0  0  0  0  0  0  0  0  0  0
   11.4590   14.1670    4.2670 C   0  0  0  0  0  0  0  0  0  0  0  0
   12.9550   14.1220    4.1430 C   0  0  0  0  0  0  0  0  0  0  0  0
   13.5590   13.2320    3.2460 C   0  0  0  0  0  0  0  0  0  0  0  0
   14.9530   13.1790    3.1140 C   0  0  0  0  0  0  0  0  0  0  0  0
   15.5880   12.2170    2.1520 C   0  0  0  0  0  0  0  0  0  0  0  0
   15.7460   13.9960    3.9270 C   0  0  0  0  0  0  0  0  0  0  0  0
   15.1560   14.8640    4.8540 C   0  0  0  0  0  0  0  0  0  0  0  0
   13.7600   14.9340    4.9520 C   0  0  0  0  0  0  0  0  0  0  0  0
   17.7130   17.5320    5.7620 C   0  0  0  0  0  0  0  0  0  0  0  0
   19.1570   17.3550    5.2050 C   0  0  2  0  0  0  0  0  0  0  0  0
   19.7120   16.0070    5.7110 C   0  0  0  0  0  0  0  0  0  0  0  0
   20.9660   15.5420    4.9850 C   0  0  0  0  0  0  0  0  0  0  0  0
   22.2220   16.0600    5.6000 N   0  0  0  0  0  4  0  0  0  0  0  0
   22.2960   17.4720    6.0640 C   0  0  0  0  0  0  0  0  0  0  0  0
   21.5370   18.4290    5.1640 C   0  0  0  0  0  0  0  0  0  0  0  0
   20.0600   18.5510    5.5550 C   0  0  0  0  0  0  0  0  0  0  0  0
   19.0800   17.2690    3.7760 O   0  0  0  0  0  0  0  0  0  0  0  0
   16.4934   16.9525    4.0838 H   0  0  0  0  0  0  0  0  0  0  0  0
   11.1793   14.1754    5.3308 H   0  0  0  0  0  0  0  0  0  0  0  0
   11.0780   15.0770    3.7805 H   0  0  0  0  0  0  0  0  0  0  0  0
   11.0239   13.2815    3.7805 H   0  0  0  0  0  0  0  0  0  0  0  0
   12.9306   12.5656    2.6369 H   0  0  0  0  0  0  0  0  0  0  0  0
   16.1092   11.4275    2.7133 H   0  0  0  0  0  0  0  0  0  0  0  0
   14.8105   11.7646    1.5189 H   0  0  0  0  0  0  0  0  0  0  0  0
   16.3096   12.7541    1.5189 H   0  0  0  0  0  0  0  0  0  0  0  0
   16.8416   13.9562    3.8373 H   0  0  0  0  0  0  0  0  0  0  0  0
   13.2948   15.6289    5.6666 H   0  0  0  0  0  0  0  0  0  0  0  0
   17.4354   18.5928    5.6743 H   0  0  0  0  0  0  0  0  0  0  0  0
   17.7281   17.1847    6.8056 H   0  0  0  0  0  0  0  0  0  0  0  0
   19.9495   16.1102    6.7801 H   0  0  0  0  0  0  0  0  0  0  0  0
   18.9355   15.2516    5.5205 H   0  0  0  0  0  0  0  0  0  0  0  0
   20.9943   14.4425    5.0036 H   0  0  0  0  0  0  0  0  0  0  0  0
   20.9163   15.9345    3.9586 H   0  0  0  0  0  0  0  0  0  0  0  0
   22.4185   15.4672    6.4191 H   0  0  0  0  0  0  0  0  0  0  0  0
   22.8961   16.0309    4.8218 H   0  0  0  0  0  0  0  0  0  0  0  0
   21.8715   17.5314    7.0771 H   0  0  0  0  0  0  0  0  0  0  0  0
   23.3545   17.7707    6.0459 H   0  0  0  0  0  0  0  0  0  0  0  0
   22.0036   19.4228    5.2316 H   0  0  0  0  0  0  0  0  0  0  0  0
   21.5811   18.0321    4.1391 H   0  0  0  0  0  0  0  0  0  0  0  0
   20.0134   18.6977    6.6442 H   0  0  0  0  0  0  0  0  0  0  0  0
   19.6706   19.3931    4.9641 H   0  0  0  0  0  0  0  0  0  0  0  0
   18.4417   16.5561    3.5222 H   0  0  0  0  0  0  0  0  0  0  0  0
  2  1  2  0
  3  1  1  0
  5  4  1  0
  6  5  2  0
  7  6  1  0
  8  7  1  0
  9  7  2  0
 10  9  1  0
 10  1  1  0
 11 10  2  0
 11  5  1  0
 12  3  1  0
 13 12  1  0
 14 13  1  0
 15 14  1  0
 16 15  1  0
 17 16  1  0
 18 17  1  0
 19 18  1  0
 19 13  1  0
 13 20  1  6
  3 21  1  0
  4 22  1  0
  4 23  1  0
  4 24  1  0
  6 25  1  0
  8 26  1  0
  8 27  1  0
  8 28  1  0
  9 29  1  0
 11 30  1  0
 12 31  1  0
 12 32  1  0
 14 33  1  0
 14 34  1  0
 15 35  1  0
 15 36  1  0
 16 37  1  0
 16 38  1  0
 17 39  1  0
 17 40  1  0
 18 41  1  0
 18 42  1  0
 19 43  1  0
 19 44  1  0
 20 45  1  0
M  CHG  1  16   1
M  END
$$$$
=
     RDKit          3D

 41 42  0  0  0  0  0  0  0  0999 V2000
   19.6020   16.9050    5.3110 C   0  0  2  0  0  0  0  0  0  0  0  0
   20.9430   16.4250    4.7410 C   0  0  0  0  0  0  0  0  0  0  0  0
   21.5880   15.3140    5.5750 C   0  0  0  0  0  0  0  0  0  0  0  0
   20.8770   15.0630    6.9000 C   0  0  0  0  0  0  0  0  0  0  0  0
   19.3950   14.7470    6.7000 C   0  0  0  0  0  0  0  0  0  0  0  0
   18.6550   15.7340    5.7610 C   0  0  2  0  0  0  0  0  0  0  0  0
   19.0230   17.9300    4.3570 N   0  0  0  0  0  4  0  0  0  0  0  0
   19.8140   18.3340    3.1250 C   0  0  0  0  0  0  0  0  0  0  0  0
   19.4750   17.4970    1.8880 C   0  0  0  0  0  0  0  0  0  0  0  0
   20.5660   17.5570    0.9720 O   0  0  0  0  0  0  0  0  0  0  0  0
   17.9390   14.9030    4.6660 N   0  0  2  0  0  4  0  0  0  0  0  0
   18.7670   14.2680    3.5760 C   0  0  0  0  0  0  0  0  0  0  0  0
   16.6810   15.5000    4.1110 C   0  0  0  0  0  0  0  0  0  0  0  0
   15.7590   16.1970    5.0720 C   0  0  0  0  0  0  0  0  0  0  0  0
   15.3880   14.8500    4.5250 C   0  0  0  0  0  0  0  0  0  0  0  0
   19.7506   17.4181    6.2726 H   0  0  0  0  0  0  0  0  0  0  0  0
   20.7745   16.0451    3.7225 H   0  0  0  0  0  0  0  0  0  0  0  0
   21.6301   17.2840    4.7521 H   0  0  0  0  0  0  0  0  0  0  0  0
   21.5719   14.3835    4.9886 H   0  0  0  0  0  0  0  0  0  0  0  0
   22.6123   15.6378    5.8117 H   0  0  0  0  0  0  0  0  0  0  0  0
   21.3570   14.2122    7.4057 H   0  0  0  0  0  0  0  0  0  0  0  0
   20.9520   15.9779    7.5061 H   0  0  0  0  0  0  0  0  0  0  0  0
   19.3125   13.7368    6.2725 H   0  0  0  0  0  0  0  0  0  0  0  0
   18.9178   14.8327    7.6874 H   0  0  0  0  0  0  0  0  0  0  0  0
   17.8510   16.2907    6.2647 H   0  0  0  0  0  0  0  0  0  0  0  0
   18.1223   17.5560    4.0257 H   0  0  0  0  0  0  0  0  0  0  0  0
   18.9913   18.7930    4.9184 H   0  0  0  0  0  0  0  0  0  0  0  0
   19.5990   19.3896    2.9023 H   0  0  0  0  0  0  0  0  0  0  0  0
   20.8776   18.1671    3.3507 H   0  0  0  0  0  0  0  0  0  0  0  0
   19.3011   16.4525    2.1861 H   0  0  0  0  0  0  0  0  0  0  0  0
   18.5668   17.8927    1.4098 H   0  0  0  0  0  0  0  0  0  0  0  0
   21.4172   17.6038    1.4753 H   0  0  0  0  0  0  0  0  0  0  0  0
   17.6734   14.1075    5.2640 H   0  0  0  0  0  0  0  0  0  0  0  0
   19.5627   13.6578    4.0283 H   0  0  0  0  0  0  0  0  0  0  0  0
   18.1244   13.6290    2.9525 H   0  0  0  0  0  0  0  0  0  0  0  0
   19.2175   15.0543    2.9525 H   0  0  0  0  0  0  0  0  0  0  0  0
   17.1521   15.7726    3.1551 H   0  0  0  0  0  0  0  0  0  0  0  0
   16.0439   16.3013    6.1293 H   0  0  0  0  0  0  0  0  0  0  0  0
   15.2724   17.1829    5.1052 H   0  0  0  0  0  0  0  0  0  0  0  0
   15.4016   13.9672    5.1811 H   0  0  0  0  0  0  0  0  0  0  0  0
   14.5178   14.4400    3.9914 H   0  0  0  0  0  0  0  0  0  0  0  0
  2  1  1  0
  3  2  1  0
  4  3  1  0
  5  4  1  0
  6  5  1  0
  6  1  1  0
  7  1  1  0
  8  7  1  0
  9  8  1  0
 10  9  1  0
 11  6  1  0
 12 11  1  0
 13 11  1  0
 14 13  1  0
 15 14  1  0
 15 13  1  0
  1 16  1  1
  2 17  1  0
  2 18  1  0
  3 19  1  0
  3 20  1  0
  4 21  1  0
  4 22  1  0
  5 23  1  0
  5 24  1  0
  6 25  1  1
  7 26  1  0
  7 27  1  0
  8 28  1  0
  8 29  1  0
  9 30  1  0
  9 31  1  0
 10 32  1  0
 11 33  1  1
 12 34  1  0
 12 35  1  0
 12 36  1  0
 13 37  1  0
 14 38  1  0
 14 39  1  0
 15 40  1  0
 15 41  1  0
M  CHG  2   7   1  11   1
M  END
$$$$
=
     RDKit          3D

 20 20  0  0  0  0  0  0  0  0999 V2000
   18.8580   16.0260    3.4610 C   0  0  0  0  0  0  0  0  0  0  0  0
   17.5280   15.7020    4.0680 C   0  0  0  0  0  0  0  0  0  0  0  0
   16.6660   14.8890    3.4900 N   0  0  0  0  0  0  0  0  0  0  0  0
   15.5350   14.7910    4.2830 C   0  0  0  0  0  0  0  0  0  0  0  0
   15.5590   15.5320    5.4460 C   0  0  0  0  0  0  0  0  0  0  0  0
   17.0420   16.3830    5.5610 S   0  0  0  0  0  0  0  0  0  0  0  0
   19.8950   15.0570    3.9640 N   0  0  0  0  0  4  0  0  0  0  0  0
   20.5370   14.9540    6.3420 C   0  0  0  0  0  0  0  0  0  0  0  0
   20.8490   15.5510    4.9850 C   0  0  0  0  0  0  0  0  0  0  0  0
   18.7881   15.9509    2.3658 H   0  0  0  0  0  0  0  0  0  0  0  0
   19.1479   17.0489    3.7434 H   0  0  0  0  0  0  0  0  0  0  0  0
   14.6751   14.1642    4.0041 H   0  0  0  0  0  0  0  0  0  0  0  0
   14.7481   15.5709    6.1882 H   0  0  0  0  0  0  0  0  0  0  0  0
   19.3957   14.2530    4.3705 H   0  0  0  0  0  0  0  0  0  0  0  0
   20.4763   14.8416    3.1415 H   0  0  0  0  0  0  0  0  0  0  0  0
   20.8917   15.6328    7.1315 H   0  0  0  0  0  0  0  0  0  0  0  0
   19.4504   14.8139    6.4399 H   0  0  0  0  0  0  0  0  0  0  0  0
   21.0424   13.9819    6.4399 H   0  0  0  0  0  0  0  0  0  0  0  0
   21.8706   15.2674    4.6919 H   0  0  0  0  0  0  0  0  0  0  0  0
   20.7611   16.6455    5.0512 H   0  0  0  0  0  0  0  0  0  0  0  0
  2  1  1  0
  3  2  2  0
  4  3  1  0
  5  4  2  0
  6  5  1  0
  6  2  1  0
  7  1  1  0
  9  7  1  0
  9  8  1  0
  1 10  1  0
  1 11  1  0
  4 12  1  0
  5 13  1  0
  7 14  1  0
  7 15  1  0
  8 16  1  0
  8 17  1  0
  8 18  1  0
  9 19  1  0
  9 20  1  0
M  CHG  1   7   1
M  END
$$$$
=
     RDKit          3D

 31 32  0  0  0  0  0  0  0  0999 V2000
   14.8690   14.5580    4.2530 C   0  0  0  0  0  0  0  0  0  0  0  0
   15.2320   15.5990    5.1010 C   0  0  0  0  0  0  0  0  0  0  0  0
   16.5760   15.9830    5.1600 C   0  0  0  0  0  0  0  0  0  0  0  0
   17.5310   15.3270    4.3810 C   0  0  0  0  0  0  0  0  0  0  0  0
   17.1620   14.3220    3.5530 N   0  0  0  0  0  0  0  0  0  0  0  0
   15.8550   13.9490    3.5030 C   0  0  0  0  0  0  0  0  0  0  0  0
   18.8710   15.6700    4.3740 N   0  0  0  0  0  0  0  0  0  0  0  0
   19.8460   15.0730    5.2870 C   0  0  0  0  0  0  0  0  0  0  0  0
   20.9140   16.1100    5.6980 C   0  0  0  0  0  0  0  0  0  0  0  0
   20.3430   17.5080    5.6530 N   0  0  0  0  0  4  0  0  0  0  0  0
   20.5150   18.2240    4.3510 C   0  0  0  0  0  0  0  0  0  0  0  0
   19.4630   17.8100    3.3330 C   0  0  0  0  0  0  0  0  0  0  0  0
   19.3600   16.3010    3.1380 C   0  0  0  0  0  0  0  0  0  0  0  0
   13.2910   12.9410    3.7970 O   0  0  0  0  0  1  0  0  0  0  0  0
   13.4870   14.1120    4.1470 N   0  0  0  0  0  4  0  0  0  0  0  0
   12.5990   14.9300    4.4180 O   0  0  0  0  0  0  0  0  0  0  0  0
   14.4759   16.1112    5.7142 H   0  0  0  0  0  0  0  0  0  0  0  0
   16.8817   16.8056    5.8232 H   0  0  0  0  0  0  0  0  0  0  0  0
   15.5704   13.1237    2.8338 H   0  0  0  0  0  0  0  0  0  0  0  0
   19.3255   14.7143    6.1872 H   0  0  0  0  0  0  0  0  0  0  0  0
   20.3437   14.2360    4.7754 H   0  0  0  0  0  0  0  0  0  0  0  0
   21.2552   15.8916    6.7207 H   0  0  0  0  0  0  0  0  0  0  0  0
   21.7572   16.0486    4.9942 H   0  0  0  0  0  0  0  0  0  0  0  0
   19.3343   17.4469    5.8523 H   0  0  0  0  0  0  0  0  0  0  0  0
   20.8678   18.0539    6.3512 H   0  0  0  0  0  0  0  0  0  0  0  0
   20.4330   19.3067    4.5270 H   0  0  0  0  0  0  0  0  0  0  0  0
   21.5035   17.9620    3.9457 H   0  0  0  0  0  0  0  0  0  0  0  0
   18.4856   18.1840    3.6718 H   0  0  0  0  0  0  0  0  0  0  0  0
   19.7642   18.2396    2.3662 H   0  0  0  0  0  0  0  0  0  0  0  0
   20.3523   15.8965    2.8896 H   0  0  0  0  0  0  0  0  0  0  0  0
   18.6569   16.0882    2.3193 H   0  0  0  0  0  0  0  0  0  0  0  0
  2  1  2  0
  3  2  1  0
  4  3  2  0
  5  4  1  0
  6  1  1  0
  6  5  2  0
  7  4  1  0
  8  7  1  0
  9  8  1  0
 10  9  1  0
 11 10  1  0
 12 11  1  0
 13  7  1  0
 13 12  1  0
 15 14  1  0
 15  1  1  0
 16 15  2  0
  2 17  1  0
  3 18  1  0
  6 19  1  0
  8 20  1  0
  8 21  1  0
  9 22  1  0
  9 23  1  0
 10 24  1  0
 10 25  1  0
 11 26  1  0
 11 27  1  0
 12 28  1  0
 12 29  1  0
 13 30  1  0
 13 31  1  0
M  CHG  3  10   1  14  -1  15   1
M  END
$$$$
=
     RDKit          3D

 36 39  0  0  0  0  0  0  0  0999 V2000
   15.6920   14.8410    3.8130 N   0  0  0  0  0  0  0  0  0  0  0  0
   15.6770   15.8600    4.7040 N   0  0  0  0  0  0  0  0  0  0  0  0
   16.9590   16.1510    4.8810 C   0  0  0  0  0  0  0  0  0  0  0  0
   17.8130   15.3140    4.1270 C   0  0  0  0  0  0  0  0  0  0  0  0
   16.9670   14.4750    3.4460 C   0  0  0  0  0  0  0  0  0  0  0  0
   19.2890   15.4770    4.1900 C   0  0  1  0  0  0  0  0  0  0  0  0
   19.7550   16.7050    3.4090 C   0  0  0  0  0  0  0  0  0  0  0  0
   19.4740   17.9050    4.3330 C   0  0  0  0  0  0  0  0  0  0  0  0
   19.0160   17.3140    5.6760 C   0  0  1  0  0  0  0  0  0  0  0  0
   17.4690   17.2040    5.8050 C   0  0  0  0  0  0  0  0  0  0  0  0
   19.6140   15.9140    5.6060 N   0  0  0  0  0  4  0  0  0  0  0  0
   12.7810   13.3570    4.8930 C   0  0  0  0  0  0  0  0  0  0  0  0
   13.1020   12.3010    3.8490 C   0  0  0  0  0  0  0  0  0  0  0  0
   14.4600   12.7340    3.3150 C   0  0  0  0  0  0  0  0  0  0  0  0
   14.4330   14.2710    3.3560 C   0  0  0  0  0  0  0  0  0  0  0  0
   13.2280   14.6550    4.2320 C   0  0  0  0  0  0  0  0  0  0  0  0
   17.2503   13.6730    2.7485 H   0  0  0  0  0  0  0  0  0  0  0  0
   19.7405   14.5415    3.8281 H   0  0  0  0  0  0  0  0  0  0  0  0
   20.8297   16.6343    3.1852 H   0  0  0  0  0  0  0  0  0  0  0  0
   19.2346   16.7994    2.4445 H   0  0  0  0  0  0  0  0  0  0  0  0
   20.3874   18.5022    4.4709 H   0  0  0  0  0  0  0  0  0  0  0  0
   18.7086   18.5695    3.9056 H   0  0  0  0  0  0  0  0  0  0  0  0
   19.3264   17.9322    6.5313 H   0  0  0  0  0  0  0  0  0  0  0  0
   17.0113   18.1701    5.5459 H   0  0  0  0  0  0  0  0  0  0  0  0
   17.2089   16.9364    6.8397 H   0  0  0  0  0  0  0  0  0  0  0  0
   19.1751   15.2886    6.2968 H   0  0  0  0  0  0  0  0  0  0  0  0
   20.6218   15.8911    5.8175 H   0  0  0  0  0  0  0  0  0  0  0  0
   11.7034   13.3782    5.1130 H   0  0  0  0  0  0  0  0  0  0  0  0
   13.2780   13.1728    5.8569 H   0  0  0  0  0  0  0  0  0  0  0  0
   13.1588   11.3015    4.3047 H   0  0  0  0  0  0  0  0  0  0  0  0
   12.3355   12.2268    3.0635 H   0  0  0  0  0  0  0  0  0  0  0  0
   15.2678   12.3445    3.9519 H   0  0  0  0  0  0  0  0  0  0  0  0
   14.6459   12.3512    2.3006 H   0  0  0  0  0  0  0  0  0  0  0  0
   14.3161   14.6930    2.3469 H   0  0  0  0  0  0  0  0  0  0  0  0
   13.5241   15.3925    4.9925 H   0  0  0  0  0  0  0  0  0  0  0  0
   12.4211   15.1132    3.6412 H   0  0  0  0  0  0  0  0  0  0  0  0
  2  1  1  0
  3  2  2  0
  4  3  1  0
  5  1  1  0
  5  4  2  0
  6  4  1  0
  7  6  1  0
  8  7  1  0
  9  8  1  0
 10  3  1  0
 10  9  1  0
 11  6  1  0
 11  9  1  0
 13 12  1  0
 14 13  1  0
 15 14  1  0
 15  1  1  0
 16 15  1  0
 16 12  1  0
  5 17  1  0
  6 18  1  6
  7 19  1  0
  7 20  1  0
  8 21  1  0
  8 22  1  0
  9 23  1  1
 10 24  1  0
 10 25  1  0
 11 26  1  0
 11 27  1  0
 12 28  1  0
 12 29  1  0
 13 30  1  0
 13 31  1  0
 14 32  1  0
 14 33  1  0
 15 34  1  0
 16 35  1  0
 16 36  1  0
M  CHG  1  11   1
M  END
$$$$
=
     RDKit          3D

 55 58  0  0  0  0  0  0  0  0999 V2000
   29.6750   29.6470   15.8190 C   0  0  0  0  0  0  0  0  0  0  0  0
   30.5510   28.4840   16.2760 C   0  0  0  0  0  0  0  0  0  0  0  0
   29.7130   27.2960   16.7510 C   0  0  0  0  0  0  0  0  0  0  0  0
   28.6890   26.8070   15.6990 C   0  0  1  0  0  0  0  0  0  0  0  0
   27.7960   28.0320   15.3180 C   0  0  1  0  0  0  0  0  0  0  0  0
   28.6350   29.2050   14.7970 C   0  0  0  0  0  0  0  0  0  0  0  0
   29.4430   26.1130   14.4940 N   0  0  1  0  0  4  0  0  0  0  0  0
   30.5540   25.1430   15.0020 C   0  0  0  0  0  0  0  0  0  0  0  0
   30.0420   23.6830   15.2230 C   0  0  0  0  0  0  0  0  0  0  0  0
   29.3710   23.1000   13.9940 N   0  0  0  0  0  4  0  0  0  0  0  0
   29.1940   24.1060   12.9110 C   0  0  2  0  0  0  0  0  0  0  0  0
   28.5460   25.3920   13.4790 C   0  0  2  0  0  0  0  0  0  0  0  0
   28.2550   26.1450   12.1920 C   0  0  0  0  0  0  0  0  0  0  0  0
   27.8210   25.0410   11.2030 C   0  0  0  0  0  0  0  0  0  0  0  0
   28.2220   23.6950   11.8280 C   0  0  0  0  0  0  0  0  0  0  0  0
   26.7960   27.7070   14.3520 O   0  0  0  0  0  0  0  0  0  0  0  0
   25.6010   27.1150   14.8850 C   0  0  0  0  0  0  0  0  0  0  0  0
   25.1150   26.0480   13.9340 C   0  0  0  0  0  0  0  0  0  0  0  0
   24.5380   26.4100   12.7050 C   0  0  0  0  0  0  0  0  0  0  0  0
   24.0990   25.4340   11.8090 C   0  0  0  0  0  0  0  0  0  0  0  0
   24.2310   24.0850   12.1320 C   0  0  0  0  0  0  0  0  0  0  0  0
   24.7920   23.7130   13.3530 C   0  0  0  0  0  0  0  0  0  0  0  0
   25.2300   24.6880   14.2510 C   0  0  0  0  0  0  0  0  0  0  0  0
   29.1579   30.0683   16.6937 H   0  0  0  0  0  0  0  0  0  0  0  0
   30.3238   30.3974   15.3437 H   0  0  0  0  0  0  0  0  0  0  0  0
   31.1821   28.1612   15.4348 H   0  0  0  0  0  0  0  0  0  0  0  0
   31.1654   28.8292   17.1206 H   0  0  0  0  0  0  0  0  0  0  0  0
   30.3916   26.4640   16.9902 H   0  0  0  0  0  0  0  0  0  0  0  0
   29.1416   27.6318   17.6289 H   0  0  0  0  0  0  0  0  0  0  0  0
   28.0181   26.0250   16.0843 H   0  0  0  0  0  0  0  0  0  0  0  0
   27.2919   28.3290   16.2495 H   0  0  0  0  0  0  0  0  0  0  0  0
   29.1492   28.8947   13.8754 H   0  0  0  0  0  0  0  0  0  0  0  0
   27.9603   30.0520   14.6037 H   0  0  0  0  0  0  0  0  0  0  0  0
   29.8638   26.9004   13.9803 H   0  0  0  0  0  0  0  0  0  0  0  0
   31.3650   25.1205   14.2592 H   0  0  0  0  0  0  0  0  0  0  0  0
   30.8971   25.5204   15.9766 H   0  0  0  0  0  0  0  0  0  0  0  0
   30.8991   23.0472   15.4897 H   0  0  0  0  0  0  0  0  0  0  0  0
   29.2903   23.7149   16.0254 H   0  0  0  0  0  0  0  0  0  0  0  0
   29.9508   22.3276   13.6360 H   0  0  0  0  0  0  0  0  0  0  0  0
   28.4353   22.7725   14.2735 H   0  0  0  0  0  0  0  0  0  0  0  0
   30.2082   24.2317   12.5040 H   0  0  0  0  0  0  0  0  0  0  0  0
   27.6452   25.2424   14.0923 H   0  0  0  0  0  0  0  0  0  0  0  0
   27.4468   26.8762   12.3410 H   0  0  0  0  0  0  0  0  0  0  0  0
   29.1217   26.7189   11.8321 H   0  0  0  0  0  0  0  0  0  0  0  0
   26.7322   25.0772   11.0503 H   0  0  0  0  0  0  0  0  0  0  0  0
   28.3037   25.1788   10.2242 H   0  0  0  0  0  0  0  0  0  0  0  0
   27.3484   23.1799   12.2541 H   0  0  0  0  0  0  0  0  0  0  0  0
   28.6511   22.9882   11.1026 H   0  0  0  0  0  0  0  0  0  0  0  0
   25.8179   26.6647   15.8649 H   0  0  0  0  0  0  0  0  0  0  0  0
   24.8260   27.8863   15.0058 H   0  0  0  0  0  0  0  0  0  0  0  0
   24.4312   27.4738   12.4463 H   0  0  0  0  0  0  0  0  0  0  0  0
   23.6495   25.7293   10.8494 H   0  0  0  0  0  0  0  0  0  0  0  0
   23.8928   23.3140   11.4241 H   0  0  0  0  0  0  0  0  0  0  0  0
   24.8898   22.6478   13.6096 H   0  0  0  0  0  0  0  0  0  0  0  0
   25.6683   24.3866   15.2138 H   0  0  0  0  0  0  0  0  0  0  0  0
  2  1  1  0
  3  2  1  0
  4  3  1  0
  5  4  1  0
  6  5  1  0
  6  1  1  0
  7  4  1  0
  8  7  1  0
  9  8  1  0
 10  9  1  0
 11 10  1  0
 12 11  1  0
 12  7  1  0
 13 12  1  0
 14 13  1  0
 15 14  1  0
 15 11  1  0
 16  5  1  0
 17 16  1  0
 18 17  1  0
 19 18  2  0
 20 19  1  0
 21 20  2  0
 22 21  1  0
 23 22  2  0
 23 18  1  0
  1 24  1  0
  1 25  1  0
  2 26  1  0
  2 27  1  0
  3 28  1  0
  3 29  1  0
  4 30  1  1
  5 31  1  1
  6 32  1  0
  6 33  1  0
  7 34  1  6
  8 35  1  0
  8 36  1  0
  9 37  1  0
  9 38  1  0
 10 39  1  0
 10 40  1  0
 11 41  1  6
 12 42  1  1
 13 43  1  0
 13 44  1  0
 14 45  1  0
 14 46  1  0
 15 47  1  0
 15 48  1  0
 17 49  1  0
 17 50  1  0
 19 51  1  0
 20 52  1  0
 21 53  1  0
 22 54  1  0
 23 55  1  0
M  CHG  2   7   1  10   1
M  END
$$$$
=
     RDKit          3D

 36 37  0  0  0  0  0  0  0  0999 V2000
   13.8970   13.1470    3.5440 C   0  0  0  0  0  0  0  0  0  0  0  0
   14.1780   14.5890    3.9510 C   0  0  0  0  0  0  0  0  0  0  0  0
   15.5810   14.7190    4.5260 C   0  0  0  0  0  0  0  0  0  0  0  0
   16.6010   14.2020    3.6100 N   0  0  0  0  0  0  0  0  0  0  0  0
   16.3550   12.8230    3.1540 C   0  0  0  0  0  0  0  0  0  0  0  0
   14.9590   12.6520    2.5690 C   0  0  0  0  0  0  0  0  0  0  0  0
   17.9200   14.6250    3.5730 C   0  0  0  0  0  0  0  0  0  0  0  0
   18.8410   13.8510    3.2980 O   0  0  0  0  0  0  0  0  0  0  0  0
   18.3090   16.0660    3.8800 C   0  0  1  0  0  0  0  0  0  0  0  0
   18.6490   16.3730    5.3410 C   0  0  0  0  0  0  0  0  0  0  0  0
   18.9700   17.8590    5.5240 C   0  0  0  0  0  0  0  0  0  0  0  0
   20.0330   18.3380    4.5450 C   0  0  0  0  0  0  0  0  0  0  0  0
   19.5910   18.0380    3.1500 N   0  0  0  0  0  4  0  0  0  0  0  0
   19.3340   16.5820    2.8850 C   0  0  0  0  0  0  0  0  0  0  0  0
   12.6050   13.0620    2.9600 O   0  0  0  0  0  0  0  0  0  0  0  0
   13.9296   12.5068    4.4379 H   0  0  0  0  0  0  0  0  0  0  0  0
   14.0877   15.2382    3.0676 H   0  0  0  0  0  0  0  0  0  0  0  0
   13.4504   14.8891    4.7194 H   0  0  0  0  0  0  0  0  0  0  0  0
   15.7867   15.7815    4.7231 H   0  0  0  0  0  0  0  0  0  0  0  0
   15.6245   14.1262    5.4516 H   0  0  0  0  0  0  0  0  0  0  0  0
   17.0963   12.5672    2.3827 H   0  0  0  0  0  0  0  0  0  0  0  0
   16.4399   12.1582    4.0262 H   0  0  0  0  0  0  0  0  0  0  0  0
   14.7851   11.5867    2.3572 H   0  0  0  0  0  0  0  0  0  0  0  0
   14.8904   13.2434    1.6441 H   0  0  0  0  0  0  0  0  0  0  0  0
   17.3867   16.6488    3.7397 H   0  0  0  0  0  0  0  0  0  0  0  0
   17.7893   16.1091    5.9744 H   0  0  0  0  0  0  0  0  0  0  0  0
   19.5320   15.7835    5.6288 H   0  0  0  0  0  0  0  0  0  0  0  0
   18.0515   18.4429    5.3646 H   0  0  0  0  0  0  0  0  0  0  0  0
   19.3591   17.9994    6.5433 H   0  0  0  0  0  0  0  0  0  0  0  0
   20.1762   19.4226    4.6598 H   0  0  0  0  0  0  0  0  0  0  0  0
   20.9821   17.8211    4.7499 H   0  0  0  0  0  0  0  0  0  0  0  0
   18.7207   18.5579    2.9681 H   0  0  0  0  0  0  0  0  0  0  0  0
   20.3620   18.3203    2.5281 H   0  0  0  0  0  0  0  0  0  0  0  0
   20.2712   16.0169    2.9960 H   0  0  0  0  0  0  0  0  0  0  0  0
   18.9517   16.4548    1.8614 H   0  0  0  0  0  0  0  0  0  0  0  0
   11.9219   13.0171    3.6752 H   0  0  0  0  0  0  0  0  0  0  0  0
  2  1  1  0
  3  2  1  0
  4  3  1  0
  5  4  1  0
  6  1  1  0
  6  5  1  0
  7  4  1  0
  8  7  2  0
  9  7  1  0
 10  9  1  0
 11 10  1  0
 12 11  1  0
 13 12  1  0
 14  9  1  0
 14 13  1  0
 15  1  1  0
  1 16  1  0
  2 17  1  0
  2 18  1  0
  3 19  1  0
  3 20  1  0
  5 21  1  0
  5 22  1  0
  6 23  1  0
  6 24  1  0
  9 25  1  6
 10 26  1  0
 10 27  1  0
 11 28  1  0
 11 29  1  0
 12 30  1  0
 12 31  1  0
 13 32  1  0
 13 33  1  0
 14 34  1  0
 14 35  1  0
 15 36  1  0
M  CHG  1  13   1
M  END
$$$$
=
     RDKit          3D

 43 46  0  0  0  0  0  0  0  0999 V2000
   27.1070   26.9300   13.9460 N   0  0  0  0  0  0  0  0  0  0  0  0
   27.9430   27.1950   15.0040 C   0  0  0  0  0  0  0  0  0  0  0  0
   27.2930   27.2400   16.1470 N   0  0  0  0  0  0  0  0  0  0  0  0
   25.9760   27.0160   15.8170 C   0  0  0  0  0  0  0  0  0  0  0  0
   25.8280   26.8190   14.4450 C   0  0  0  0  0  0  0  0  0  0  0  0
   24.5830   26.5710   13.8520 C   0  0  0  0  0  0  0  0  0  0  0  0
   23.4700   26.5250   14.6990 C   0  0  0  0  0  0  0  0  0  0  0  0
   23.5970   26.7210   16.0740 C   0  0  0  0  0  0  0  0  0  0  0  0
   24.8480   26.9670   16.6500 C   0  0  0  0  0  0  0  0  0  0  0  0
   29.2900   27.3510   14.8620 N   0  0  0  0  0  0  0  0  0  0  0  0
   30.0720   26.1420   15.2420 C   0  0  0  0  0  0  0  0  0  0  0  0
   30.0670   25.8870   16.7700 C   0  0  0  0  0  0  0  0  0  0  0  0
   29.5850   27.0940   17.5260 N   0  0  0  0  0  4  0  0  0  0  0  0
   30.1490   28.3840   17.0170 C   0  0  0  0  0  0  0  0  0  0  0  0
   29.8290   28.5780   15.5120 C   0  0  0  0  0  0  0  0  0  0  0  0
   27.4930   26.8580   12.5440 C   0  0  0  0  0  0  0  0  0  0  0  0
   27.4790   22.8170   11.0220 C   0  0  0  0  0  0  0  0  0  0  0  0
   28.5700   23.2900   11.7480 C   0  0  0  0  0  0  0  0  0  0  0  0
   28.5700   24.5960   12.2390 C   0  0  0  0  0  0  0  0  0  0  0  0
   27.4740   25.4450   12.0140 C   0  0  0  0  0  0  0  0  0  0  0  0
   26.3880   24.9600   11.2690 C   0  0  0  0  0  0  0  0  0  0  0  0
   26.3900   23.6520   10.7800 C   0  0  0  0  0  0  0  0  0  0  0  0
   24.4847   26.4190   12.7670 H   0  0  0  0  0  0  0  0  0  0  0  0
   22.4752   26.3304   14.2718 H   0  0  0  0  0  0  0  0  0  0  0  0
   22.7027   26.6817   16.7133 H   0  0  0  0  0  0  0  0  0  0  0  0
   24.9454   27.1191   17.7351 H   0  0  0  0  0  0  0  0  0  0  0  0
   29.6363   25.2672   14.7371 H   0  0  0  0  0  0  0  0  0  0  0  0
   31.1150   26.3090   14.9349 H   0  0  0  0  0  0  0  0  0  0  0  0
   29.4022   25.0385   16.9891 H   0  0  0  0  0  0  0  0  0  0  0  0
   31.0971   25.6680   17.0878 H   0  0  0  0  0  0  0  0  0  0  0  0
   28.5585   27.1358   17.4526 H   0  0  0  0  0  0  0  0  0  0  0  0
   29.9038   26.9880   18.4997 H   0  0  0  0  0  0  0  0  0  0  0  0
   29.7122   29.2170   17.5874 H   0  0  0  0  0  0  0  0  0  0  0  0
   31.2417   28.3610   17.1417 H   0  0  0  0  0  0  0  0  0  0  0  0
   30.7538   28.8706   14.9932 H   0  0  0  0  0  0  0  0  0  0  0  0
   29.0515   29.3529   15.4412 H   0  0  0  0  0  0  0  0  0  0  0  0
   26.7926   27.4664   11.9530 H   0  0  0  0  0  0  0  0  0  0  0  0
   28.5233   27.2339   12.4600 H   0  0  0  0  0  0  0  0  0  0  0  0
   27.4773   21.7854   10.6402 H   0  0  0  0  0  0  0  0  0  0  0  0
   29.4324   22.6330   11.9343 H   0  0  0  0  0  0  0  0  0  0  0  0
   29.4366   24.9642   12.8077 H   0  0  0  0  0  0  0  0  0  0  0  0
   25.5279   25.6158   11.0686 H   0  0  0  0  0  0  0  0  0  0  0  0
   25.5305   23.2802   10.2028 H   0  0  0  0  0  0  0  0  0  0  0  0
  2  1  1  0
  3  2  2  0
  4  3  1  0
  5  4  2  0
  5  1  1  0
  6  5  1  0
  7  6  2  0
  8  7  1  0
  9  8  2  0
  9  4  1  0
 10  2  1  0
 11 10  1  0
 12 11  1  0
 13 12  1  0
 14 13  1  0
 15 10  1  0
 15 14  1  0
 16  1  1  0
 18 17  2  0
 19 18  1  0
 20 19  2  0
 20 16  1  0
 21 20  1  0
 22 21  2  0
 22 17  1  0
  6 23  1  0
  7 24  1  0
  8 25  1  0
  9 26  1  0
 11 27  1  0
 11 28  1  0
 12 29  1  0
 12 30  1  0
 13 31  1  0
 13 32  1  0
 14 33  1  0
 14 34  1  0
 15 35  1  0
 15 36  1  0
 16 37  1  0
 16 38  1  0
 17 39  1  0
 18 40  1  0
 19 41  1  0
 21 42  1  0
 22 43  1  0
M  CHG  1  13   1
M  END
$$$$
=
     RDKit          3D

 34 36  0  0  0  0  0  0  0  0999 V2000
   22.5730   17.9090    5.4070 C   0  0  2  0  0  0  0  0  0  0  0  0
   22.1190   18.8120    4.2950 C   0  0  2  0  0  0  0  0  0  0  0  0
   21.2760   18.6620    5.5230 C   0  0  1  0  0  0  0  0  0  0  0  0
   19.9840   18.0120    5.1280 C   0  0  0  0  0  0  0  0  0  0  0  0
   20.2030   17.6360    3.7450 N   0  0  0  0  0  0  0  0  0  0  0  0
   21.3580   18.2580    3.1310 C   0  0  0  0  0  0  0  0  0  0  0  0
   19.3370   16.8710    3.0010 C   0  0  0  0  0  0  0  0  0  0  0  0
   19.5290   16.6040    1.8220 O   0  0  0  0  0  0  0  0  0  0  0  0
   23.6920   18.3790    6.2290 N   0  0  0  0  0  4  0  0  0  0  0  0
   18.2830   16.4460    3.7390 O   0  0  0  0  0  0  0  0  0  0  0  0
   18.1490   15.0250    3.8780 C   0  0  0  0  0  0  0  0  0  0  0  0
   16.6840   14.6770    3.9150 C   0  0  0  0  0  0  0  0  0  0  0  0
   15.7910   15.4440    4.6750 C   0  0  0  0  0  0  0  0  0  0  0  0
   14.4310   15.1330    4.6960 C   0  0  0  0  0  0  0  0  0  0  0  0
   13.9500   14.0570    3.9510 C   0  0  0  0  0  0  0  0  0  0  0  0
   14.8270   13.2940    3.1840 C   0  0  0  0  0  0  0  0  0  0  0  0
   16.1880   13.6040    3.1620 C   0  0  0  0  0  0  0  0  0  0  0  0
   22.8708   16.8528    5.4828 H   0  0  0  0  0  0  0  0  0  0  0  0
   22.6708   19.5803    3.7336 H   0  0  0  0  0  0  0  0  0  0  0  0
   20.8725   19.2590    6.3541 H   0  0  0  0  0  0  0  0  0  0  0  0
   19.7834   17.1266    5.7491 H   0  0  0  0  0  0  0  0  0  0  0  0
   19.1143   18.6725    5.2598 H   0  0  0  0  0  0  0  0  0  0  0  0
   21.9599   17.5165    2.5852 H   0  0  0  0  0  0  0  0  0  0  0  0
   21.0876   19.0266    2.3920 H   0  0  0  0  0  0  0  0  0  0  0  0
   23.4520   18.2782    7.2256 H   0  0  0  0  0  0  0  0  0  0  0  0
   24.5308   17.8191    6.0195 H   0  0  0  0  0  0  0  0  0  0  0  0
   23.8795   19.3699    6.0195 H   0  0  0  0  0  0  0  0  0  0  0  0
   18.6267   14.5233    3.0236 H   0  0  0  0  0  0  0  0  0  0  0  0
   18.6357   14.6928    4.8068 H   0  0  0  0  0  0  0  0  0  0  0  0
   16.1649   16.2976    5.2594 H   0  0  0  0  0  0  0  0  0  0  0  0
   13.7381   15.7368    5.3004 H   0  0  0  0  0  0  0  0  0  0  0  0
   12.8781   13.8108    3.9691 H   0  0  0  0  0  0  0  0  0  0  0  0
   14.4469   12.4463    2.5950 H   0  0  0  0  0  0  0  0  0  0  0  0
   16.8756   13.0022    2.5497 H   0  0  0  0  0  0  0  0  0  0  0  0
  2  1  1  0
  3  2  1  0
  3  1  1  0
  4  3  1  0
  5  4  1  0
  6  5  1  0
  6  2  1  0
  7  5  1  0
  8  7  2  0
  9  1  1  0
 10  7  1  0
 11 10  1  0
 12 11  1  0
 13 12  2  0
 14 13  1  0
 15 14  2  0
 16 15  1  0
 17 16  2  0
 17 12  1  0
  1 18  1  6
  2 19  1  6
  3 20  1  1
  4 21  1  0
  4 22  1  0
  6 23  1  0
  6 24  1  0
  9 25  1  0
  9 26  1  0
  9 27  1  0
 11 28  1  0
 11 29  1  0
 13 30  1  0
 14 31  1  0
 15 32  1  0
 16 33  1  0
 17 34  1  0
M  CHG  1   9   1
M  END
$$$$
=
     RDKit          3D

 68 74  0  0  0  0  0  0  0  0999 V2000
   23.5490   26.8870   11.6370 O   0  0  0  0  0  0  0  0  0  0  0  0
   23.6320   26.6720   12.8370 C   0  0  0  0  0  0  0  0  0  0  0  0
   24.7030   26.2430   13.5830 N   0  0  0  0  0  0  0  0  0  0  0  0
   24.3940   26.1270   14.9180 C   0  0  0  0  0  0  0  0  0  0  0  0
   25.0950   25.8290   15.8700 O   0  0  0  0  0  0  0  0  0  0  0  0
   22.9540   26.4980   15.1160 C   0  0  1  0  0  0  0  0  0  0  0  0
   22.4290   26.7840   13.7180 C   0  0  2  0  0  0  0  0  0  0  0  0
   21.3880   25.7200   13.4210 C   0  0  1  0  0  0  0  0  0  0  0  0
   20.9380   25.2820   14.8230 N   0  0  0  0  0  4  0  0  0  0  0  0
   22.1620   25.3290   15.6830 C   0  0  2  0  0  0  0  0  0  0  0  0
   21.7460   25.5170   17.1310 C   0  0  0  0  0  0  0  0  0  0  0  0
   20.1890   26.0920   12.5990 C   0  0  0  0  0  0  0  0  0  0  0  0
   19.3580   27.2000   12.6840 C   0  0  0  0  0  0  0  0  0  0  0  0
   18.2190   27.2290   11.8750 C   0  0  0  0  0  0  0  0  0  0  0  0
   17.9200   26.1590   11.0150 C   0  0  0  0  0  0  0  0  0  0  0  0
   18.7590   25.0450   10.9370 C   0  0  0  0  0  0  0  0  0  0  0  0
   19.8950   25.0390   11.7240 C   0  0  0  0  0  0  0  0  0  0  0  0
   20.8900   24.0520   11.8100 N   0  0  0  0  0  0  0  0  0  0  0  0
   21.8990   24.4360   12.6950 C   0  0  0  0  0  0  0  0  0  0  0  0
   22.8800   23.7950   13.0440 O   0  0  0  0  0  0  0  0  0  0  0  0
   26.0100   26.0580   13.0400 C   0  0  0  0  0  0  0  0  0  0  0  0
   26.9560   27.0760   13.2610 C   0  0  0  0  0  0  0  0  0  0  0  0
   28.2770   26.9340   12.8510 C   0  0  0  0  0  0  0  0  0  0  0  0
   28.6740   25.7720   12.2010 C   0  0  0  0  0  0  0  0  0  0  0  0
   27.7540   24.7560   11.9160 C   0  0  0  0  0  0  0  0  0  0  0  0
   26.3950   24.8870   12.3110 C   0  0  0  0  0  0  0  0  0  0  0  0
   25.5140   23.8600   11.8840 C   0  0  0  0  0  0  0  0  0  0  0  0
   25.9580   22.7370   11.1780 C   0  0  0  0  0  0  0  0  0  0  0  0
   27.2990   22.6120   10.8540 C   0  0  0  0  0  0  0  0  0  0  0  0
   28.1890   23.6200   11.2130 C   0  0  0  0  0  0  0  0  0  0  0  0
   20.6420   22.6410   11.5830 C   0  0  0  0  0  0  0  0  0  0  0  0
   19.6790   22.1640   12.7030 C   0  0  0  0  0  0  0  0  0  0  0  0
   20.0400   22.1730   13.8930 O   0  0  0  0  0  0  0  0  0  0  0  0
   18.4350   21.6860   12.3160 N   0  0  0  0  0  0  0  0  0  0  0  0
   17.4330   21.4330   13.3580 C   0  0  0  0  0  0  0  0  0  0  0  0
   16.3780   20.4160   12.9150 C   0  0  0  0  0  0  0  0  0  0  0  0
   15.7960   20.8030   11.6640 O   0  0  0  0  0  0  0  0  0  0  0  0
   16.7940   20.8400   10.6400 C   0  0  0  0  0  0  0  0  0  0  0  0
   17.8770   21.8740   10.9670 C   0  0  0  0  0  0  0  0  0  0  0  0
   22.8576   27.3452   15.8110 H   0  0  0  0  0  0  0  0  0  0  0  0
   21.9557   27.7674   13.5807 H   0  0  0  0  0  0  0  0  0  0  0  0
   20.2207   25.9259   15.1860 H   0  0  0  0  0  0  0  0  0  0  0  0
   20.5232   24.3393   14.8086 H   0  0  0  0  0  0  0  0  0  0  0  0
   22.7703   24.4126   15.6761 H   0  0  0  0  0  0  0  0  0  0  0  0
   22.5469   25.1551   17.7925 H   0  0  0  0  0  0  0  0  0  0  0  0
   21.5647   26.5845   17.3248 H   0  0  0  0  0  0  0  0  0  0  0  0
   20.8250   24.9476   17.3248 H   0  0  0  0  0  0  0  0  0  0  0  0
   19.5889   28.0304   13.3675 H   0  0  0  0  0  0  0  0  0  0  0  0
   17.5484   28.1001   11.9119 H   0  0  0  0  0  0  0  0  0  0  0  0
   17.0126   26.1991   10.3945 H   0  0  0  0  0  0  0  0  0  0  0  0
   18.5235   24.2012   10.2718 H   0  0  0  0  0  0  0  0  0  0  0  0
   26.6446   28.0014   13.7676 H   0  0  0  0  0  0  0  0  0  0  0  0
   29.0040   27.7375   13.0403 H   0  0  0  0  0  0  0  0  0  0  0  0
   29.7265   25.6485   11.9060 H   0  0  0  0  0  0  0  0  0  0  0  0
   24.4427   23.9502   12.1167 H   0  0  0  0  0  0  0  0  0  0  0  0
   25.2439   21.9549   10.8808 H   0  0  0  0  0  0  0  0  0  0  0  0
   27.6581   21.7219   10.3165 H   0  0  0  0  0  0  0  0  0  0  0  0
   29.2509   23.5257   10.9418 H   0  0  0  0  0  0  0  0  0  0  0  0
   20.1776   22.4929   10.5969 H   0  0  0  0  0  0  0  0  0  0  0  0
   21.5814   22.0690   11.6028 H   0  0  0  0  0  0  0  0  0  0  0  0
   17.9430   21.0466   14.2528 H   0  0  0  0  0  0  0  0  0  0  0  0
   16.9182   22.3823   13.5674 H   0  0  0  0  0  0  0  0  0  0  0  0
   16.8518   19.4296   12.8032 H   0  0  0  0  0  0  0  0  0  0  0  0
   15.5851   20.3742   13.6763 H   0  0  0  0  0  0  0  0  0  0  0  0
   17.2589   19.8467   10.5544 H   0  0  0  0  0  0  0  0  0  0  0  0
   16.3135   21.1231    9.6918 H   0  0  0  0  0  0  0  0  0  0  0  0
   18.6895   21.7810   10.2313 H   0  0  0  0  0  0  0  0  0  0  0  0
   17.4147   22.8714   10.9284 H   0  0  0  0  0  0  0  0  0  0  0  0
  2  1  2  0
  3  2  1  0
  4  3  1  0
  5  4  2  0
  6  4  1  0
  7  6  1  0
  7  2  1  0
  8  7  1  0
  9  8  1  0
 10  9  1  0
 10  6  1  0
 11 10  1  0
 12  8  1  0
 13 12  2  0
 14 13  1  0
 15 14  2  0
 16 15  1  0
 17 16  2  0
 17 12  1  0
 18 17  1  0
 19 18  1  0
  8 19  1  6
 20 19  2  0
 21  3  1  0
 22 21  2  0
 23 22  1  0
 24 23  2  0
 25 24  1  0
 26 21  1  0
 26 25  2  0
 27 26  1  0
 28 27  2  0
 29 28  1  0
 30 29  2  0
 30 25  1  0
 31 18  1  0
 32 31  1  0
 33 32  2  0
 34 32  1  0
 35 34  1  0
 36 35  1  0
 37 36  1  0
 38 37  1  0
 39 38  1  0
 39 34  1  0
  6 40  1  1
  7 41  1  1
  9 42  1  0
  9 43  1  0
 10 44  1  1
 11 45  1  0
 11 46  1  0
 11 47  1  0
 13 48  1  0
 14 49  1  0
 15 50  1  0
 16 51  1  0
 22 52  1  0
 23 53  1  0
 24 54  1  0
 27 55  1  0
 28 56  1  0
 29 57  1  0
 30 58  1  0
 31 59  1  0
 31 60  1  0
 35 61  1  0
 35 62  1  0
 36 63  1  0
 36 64  1  0
 38 65  1  0
 38 66  1  0
 39 67  1  0
 39 68  1  0
M  CHG  1   9   1
M  END
$$$$
=
     RDKit          3D

 36 36  0  0  0  0  0  0  0  0999 V2000
   19.7020   15.7580    5.5710 C   0  0  2  0  0  0  0  0  0  0  0  0
   20.4150   14.8020    6.5310 C   0  0  0  0  0  0  0  0  0  0  0  0
   18.5340   15.1310    4.8250 C   0  0  0  0  0  0  0  0  0  0  0  0
   18.7480   14.0310    3.9680 C   0  0  0  0  0  0  0  0  0  0  0  0
   17.7010   13.4710    3.2350 C   0  0  0  0  0  0  0  0  0  0  0  0
   16.4220   14.0010    3.3370 C   0  0  0  0  0  0  0  0  0  0  0  0
   16.1880   15.0940    4.1670 C   0  0  0  0  0  0  0  0  0  0  0  0
   17.2290   15.6750    4.9100 C   0  0  0  0  0  0  0  0  0  0  0  0
   16.8940   16.8520    5.7900 C   0  0  0  0  0  0  0  0  0  0  0  0
   20.6850   16.2890    4.5590 N   0  0  0  0  0  4  0  0  0  0  0  0
   20.7080   17.7690    4.2830 C   0  0  2  0  0  0  0  0  0  0  0  0
   20.5810   18.5260    5.6020 C   0  0  0  0  0  0  0  0  0  0  0  0
   19.6880   17.3540    1.9770 C   0  0  0  0  0  0  0  0  0  0  0  0
   19.5510   18.0640    3.3150 C   0  0  0  0  0  0  0  0  0  0  0  0
   19.2909   16.5620    6.1992 H   0  0  0  0  0  0  0  0  0  0  0  0
   20.1970   15.0943    7.5688 H   0  0  0  0  0  0  0  0  0  0  0  0
   20.0602   13.7754    6.3570 H   0  0  0  0  0  0  0  0  0  0  0  0
   21.5001   14.8494    6.3570 H   0  0  0  0  0  0  0  0  0  0  0  0
   19.7588   13.6070    3.8759 H   0  0  0  0  0  0  0  0  0  0  0  0
   17.8890   12.6100    2.5767 H   0  0  0  0  0  0  0  0  0  0  0  0
   15.5948   13.5581    2.7630 H   0  0  0  0  0  0  0  0  0  0  0  0
   15.1721   15.5091    4.2421 H   0  0  0  0  0  0  0  0  0  0  0  0
   16.9783   16.5560    6.8461 H   0  0  0  0  0  0  0  0  0  0  0  0
   17.5935   17.6754    5.5831 H   0  0  0  0  0  0  0  0  0  0  0  0
   15.8658   17.1836    5.5831 H   0  0  0  0  0  0  0  0  0  0  0  0
   21.6265   16.0262    4.8836 H   0  0  0  0  0  0  0  0  0  0  0  0
   20.3776   15.8726    3.6685 H   0  0  0  0  0  0  0  0  0  0  0  0
   21.6509   18.0957    3.8201 H   0  0  0  0  0  0  0  0  0  0  0  0
   20.6988   17.8239    6.4405 H   0  0  0  0  0  0  0  0  0  0  0  0
   21.3621   19.2985    5.6581 H   0  0  0  0  0  0  0  0  0  0  0  0
   19.5906   19.0013    5.6581 H   0  0  0  0  0  0  0  0  0  0  0  0
   19.8939   16.2870    2.1475 H   0  0  0  0  0  0  0  0  0  0  0  0
   18.7527   17.4606    1.4079 H   0  0  0  0  0  0  0  0  0  0  0  0
   20.5165   17.8009    1.4079 H   0  0  0  0  0  0  0  0  0  0  0  0
   19.5166   19.1482    3.1326 H   0  0  0  0  0  0  0  0  0  0  0  0
   18.6295   17.6928    3.7871 H   0  0  0  0  0  0  0  0  0  0  0  0
  2  1  1  0
  3  1  1  0
  4  3  2  0
  5  4  1  0
  6  5  2  0
  7  6  1  0
  8  7  2  0
  8  3  1  0
  9  8  1  0
 10  1  1  0
 11 10  1  0
 12 11  1  0
 14 13  1  0
 14 11  1  0
  1 15  1  1
  2 16  1  0
  2 17  1  0
  2 18  1  0
  4 19  1  0
  5 20  1  0
  6 21  1  0
  7 22  1  0
  9 23  1  0
  9 24  1  0
  9 25  1  0
 10 26  1  0
 10 27  1  0
 11 28  1  6
 12 29  1  0
 12 30  1  0
 12 31  1  0
 13 32  1  0
 13 33  1  0
 13 34  1  0
 14 35  1  0
 14 36  1  0
M  CHG  1  10   1
M  END
$$$$
=
     RDKit          3D

 15 16  0  0  0  0  0  0  0  0999 V2000
   20.6450   17.4850    3.7190 C   0  0  0  0  0  0  0  0  0  0  0  0
   21.6660   18.4570    3.7360 C   0  0  0  0  0  0  0  0  0  0  0  0
   22.6090   18.5900    4.7860 C   0  0  0  0  0  0  0  0  0  0  0  0
   22.6250   17.7540    5.9150 C   0  0  0  0  0  0  0  0  0  0  0  0
   21.6360   16.7440    5.9530 C   0  0  0  0  0  0  0  0  0  0  0  0
   20.6300   16.6000    4.8400 C   0  0  0  0  0  0  0  0  0  0  0  0
   19.7610   15.5920    5.0390 N   0  0  0  0  0  0  0  0  0  0  0  0
   20.1850   14.8910    6.4840 S   0  0  0  0  0  0  0  0  0  0  0  0
   21.4750   15.8380    6.9310 N   0  0  0  0  0  0  0  0  0  0  0  0
   19.7670   17.3870    2.6260 N   0  0  0  0  0  0  0  0  0  0  0  0
   21.7348   19.1518    2.8860 H   0  0  0  0  0  0  0  0  0  0  0  0
   23.3646   19.3861    4.7133 H   0  0  0  0  0  0  0  0  0  0  0  0
   23.3629   17.8777    6.7214 H   0  0  0  0  0  0  0  0  0  0  0  0
   19.0246   16.6730    2.6242 H   0  0  0  0  0  0  0  0  0  0  0  0
   19.8659   18.0291    1.8268 H   0  0  0  0  0  0  0  0  0  0  0  0
  2  1  2  0
  3  2  1  0
  4  3  2  0
  5  4  1  0
  6  1  1  0
  6  5  1  0
  7  6  2  0
  8  7  1  0
  9  8  1  0
  9  5  2  0
 10  1  1  0
  2 11  1  0
  3 12  1  0
  4 13  1  0
 10 14  1  0
 10 15  1  0
M  END
$$$$
=
     RDKit          3D

 26 27  0  0  0  0  0  0  0  0999 V2000
   20.4270   15.3630    4.8320 C   0  0  0  0  0  0  0  0  0  0  0  0
   19.6620   14.8760    6.0460 C   0  0  0  0  0  0  0  0  0  0  0  0
   18.3280   15.6090    6.2050 C   0  0  0  0  0  0  0  0  0  0  0  0
   17.7300   16.0820    4.8660 C   0  0  1  0  0  0  0  0  0  0  0  0
   18.1310   15.1430    3.7370 C   0  0  0  0  0  0  0  0  0  0  0  0
   19.6250   15.1180    3.5900 N   0  0  0  0  0  4  0  0  0  0  0  0
   16.2080   16.1550    4.9700 C   0  0  2  0  0  0  0  0  0  0  0  0
   15.5130   15.2890    6.0350 C   0  0  0  0  0  0  0  0  0  0  0  0
   14.6830   14.7650    4.8640 C   0  0  0  0  0  0  0  0  0  0  0  0
   15.5960   15.3700    3.9140 O   0  0  0  0  0  0  0  0  0  0  0  0
   20.6228   16.4407    4.9328 H   0  0  0  0  0  0  0  0  0  0  0  0
   21.3790   14.8165    4.7613 H   0  0  0  0  0  0  0  0  0  0  0  0
   19.4663   13.7992    5.9358 H   0  0  0  0  0  0  0  0  0  0  0  0
   20.2721   15.0760    6.9391 H   0  0  0  0  0  0  0  0  0  0  0  0
   17.6107   14.9283    6.6868 H   0  0  0  0  0  0  0  0  0  0  0  0
   18.5192   16.5063    6.8119 H   0  0  0  0  0  0  0  0  0  0  0  0
   18.1247   17.0841    4.6425 H   0  0  0  0  0  0  0  0  0  0  0  0
   17.7710   14.1284    3.9629 H   0  0  0  0  0  0  0  0  0  0  0  0
   17.6836   15.4994    2.7974 H   0  0  0  0  0  0  0  0  0  0  0  0
   19.8875   14.1906    3.2267 H   0  0  0  0  0  0  0  0  0  0  0  0
   19.8488   15.9043    2.9634 H   0  0  0  0  0  0  0  0  0  0  0  0
   16.0916   17.2444    5.0680 H   0  0  0  0  0  0  0  0  0  0  0  0
   16.1555   14.5431    6.5257 H   0  0  0  0  0  0  0  0  0  0  0  0
   15.0672   15.7036    6.9512 H   0  0  0  0  0  0  0  0  0  0  0  0
   14.6408   13.6674    4.8040 H   0  0  0  0  0  0  0  0  0  0  0  0
   13.6076   14.9902    4.8103 H   0  0  0  0  0  0  0  0  0  0  0  0
  2  1  1  0
  3  2  1  0
  4  3  1  0
  5  4  1  0
  6  5  1  0
  6  1  1  0
  7  4  1  0
  8  7  1  0
  9  8  1  0
 10  9  1  0
 10  7  1  0
  1 11  1  0
  1 12  1  0
  2 13  1  0
  2 14  1  0
  3 15  1  0
  3 16  1  0
  4 17  1  6
  5 18  1  0
  5 19  1  0
  6 20  1  0
  6 21  1  0
  7 22  1  6
  8 23  1  0
  8 24  1  0
  9 25  1  0
  9 26  1  0
M  CHG  1   6   1
M  END
$$$$
=
     RDKit          3D

 46 47  0  0  0  0  0  0  0  0999 V2000
   18.8760   16.3240    5.3670 N   0  0  2  0  0  4  0  0  0  0  0  0
   19.0610   15.3010    6.4930 C   0  0  0  0  0  0  0  0  0  0  0  0
   20.4450   14.5930    6.4030 C   0  0  0  0  0  0  0  0  0  0  0  0
   21.5730   15.5430    6.0630 N   0  0  0  0  0  4  0  0  0  0  0  0
   21.2380   17.0150    6.1950 C   0  0  2  0  0  0  0  0  0  0  0  0
   20.0140   17.3930    5.2830 C   0  0  1  0  0  0  0  0  0  0  0  0
   20.4100   17.5180    3.8030 C   0  0  0  0  0  0  0  0  0  0  0  0
   21.6160   18.4310    3.6100 C   0  0  0  0  0  0  0  0  0  0  0  0
   22.8150   17.9470    4.4170 C   0  0  0  0  0  0  0  0  0  0  0  0
   22.4810   17.8550    5.9030 C   0  0  0  0  0  0  0  0  0  0  0  0
   17.4510   16.8760    5.2150 C   0  0  0  0  0  0  0  0  0  0  0  0
   16.3400   15.9700    5.7770 C   0  0  0  0  0  0  0  0  0  0  0  0
   15.2020   15.8320    4.7420 C   0  0  0  0  0  0  0  0  0  0  0  0
   13.3420   14.1450    4.2700 C   0  0  0  0  0  0  0  0  0  0  0  0
   14.8200   14.4060    4.4230 N   0  0  0  0  0  4  0  0  0  0  0  0
   15.6280   13.7410    3.3370 C   0  0  0  0  0  0  0  0  0  0  0  0
   18.9933   15.7692    4.5072 H   0  0  0  0  0  0  0  0  0  0  0  0
   18.9870   15.8183    7.4609 H   0  0  0  0  0  0  0  0  0  0  0  0
   18.2765   14.5362    6.3951 H   0  0  0  0  0  0  0  0  0  0  0  0
   20.6625   14.1234    7.3736 H   0  0  0  0  0  0  0  0  0  0  0  0
   20.3836   13.8511    5.5931 H   0  0  0  0  0  0  0  0  0  0  0  0
   22.3627   15.3382    6.6918 H   0  0  0  0  0  0  0  0  0  0  0  0
   21.7885   15.3868    5.0680 H   0  0  0  0  0  0  0  0  0  0  0  0
   20.9298   17.2334    7.2281 H   0  0  0  0  0  0  0  0  0  0  0  0
   19.6593   18.3629    5.6618 H   0  0  0  0  0  0  0  0  0  0  0  0
   20.6556   16.5183    3.4153 H   0  0  0  0  0  0  0  0  0  0  0  0
   19.5605   17.9575    3.2597 H   0  0  0  0  0  0  0  0  0  0  0  0
   21.8854   18.4474    2.5436 H   0  0  0  0  0  0  0  0  0  0  0  0
   21.3470   19.4384    3.9603 H   0  0  0  0  0  0  0  0  0  0  0  0
   23.1133   16.9523    4.0543 H   0  0  0  0  0  0  0  0  0  0  0  0
   23.6347   18.6693    4.2890 H   0  0  0  0  0  0  0  0  0  0  0  0
   22.3122   18.8722    6.2861 H   0  0  0  0  0  0  0  0  0  0  0  0
   23.3305   17.3603    6.3967 H   0  0  0  0  0  0  0  0  0  0  0  0
   17.4014   17.8420    5.7387 H   0  0  0  0  0  0  0  0  0  0  0  0
   17.2655   16.9561    4.1337 H   0  0  0  0  0  0  0  0  0  0  0  0
   16.7561   14.9757    5.9966 H   0  0  0  0  0  0  0  0  0  0  0  0
   15.9395   16.4168    6.6989 H   0  0  0  0  0  0  0  0  0  0  0  0
   14.3134   16.3464    5.1367 H   0  0  0  0  0  0  0  0  0  0  0  0
   15.5728   16.2752    3.8060 H   0  0  0  0  0  0  0  0  0  0  0  0
   12.8792   14.0633    5.2646 H   0  0  0  0  0  0  0  0  0  0  0  0
   12.8784   14.9752    3.7169 H   0  0  0  0  0  0  0  0  0  0  0  0
   13.1908   13.2063    3.7169 H   0  0  0  0  0  0  0  0  0  0  0  0
   15.0934   13.9334    5.2964 H   0  0  0  0  0  0  0  0  0  0  0  0
   16.4011   13.1048    3.7926 H   0  0  0  0  0  0  0  0  0  0  0  0
   14.9654   13.1231    2.7132 H   0  0  0  0  0  0  0  0  0  0  0  0
   16.1069   14.5101    2.7132 H   0  0  0  0  0  0  0  0  0  0  0  0
  2  1  1  0
  3  2  1  0
  4  3  1  0
  5  4  1  0
  6  1  1  0
  6  5  1  0
  7  6  1  0
  8  7  1  0
  9  8  1  0
 10  5  1  0
 10  9  1  0
 11  1  1  0
 12 11  1  0
 13 12  1  0
 15 14  1  0
 15 13  1  0
 16 15  1  0
  1 17  1  6
  2 18  1  0
  2 19  1  0
  3 20  1  0
  3 21  1  0
  4 22  1  0
  4 23  1  0
  5 24  1  1
  6 25  1  1
  7 26  1  0
  7 27  1  0
  8 28  1  0
  8 29  1  0
  9 30  1  0
  9 31  1  0
 10 32  1  0
 10 33  1  0
 11 34  1  0
 11 35  1  0
 12 36  1  0
 12 37  1  0
 13 38  1  0
 13 39  1  0
 14 40  1  0
 14 41  1  0
 14 42  1  0
 15 43  1  0
 16 44  1  0
 16 45  1  0
 16 46  1  0
M  CHG  3   1   1   4   1  15   1
M  END
$$$$
=
     RDKit          3D

 39 40  0  0  0  0  0  0  0  0999 V2000
   16.2340   15.0060    4.1550 C   0  0  0  0  0  0  0  0  0  0  0  0
   16.1030   13.8730    3.3350 C   0  0  0  0  0  0  0  0  0  0  0  0
   14.8850   13.1920    3.1910 C   0  0  0  0  0  0  0  0  0  0  0  0
   13.7390   13.6220    3.8690 C   0  0  0  0  0  0  0  0  0  0  0  0
   13.8630   14.7370    4.7100 C   0  0  0  0  0  0  0  0  0  0  0  0
   15.0870   15.4110    4.8490 C   0  0  0  0  0  0  0  0  0  0  0  0
   20.6990   15.9230    6.2170 C   0  0  0  0  0  0  0  0  0  0  0  0
   20.1210   16.6580    5.0420 N   0  0  0  0  0  4  0  0  0  0  0  0
   19.9260   15.7850    3.8070 C   0  0  0  0  0  0  0  0  0  0  0  0
   18.6950   14.8620    3.9420 C   0  0  0  0  0  0  0  0  0  0  0  0
   17.4810   15.6450    4.2670 N   0  0  0  0  0  0  0  0  0  0  0  0
   17.6170   16.4950    5.4790 C   0  0  0  0  0  0  0  0  0  0  0  0
   18.8460   17.4250    5.3680 C   0  0  0  0  0  0  0  0  0  0  0  0
   12.4110   12.9080    3.7510 C   0  0  1  0  0  0  0  0  0  0  0  0
   11.2010   13.8400    3.7140 C   0  0  0  0  0  0  0  0  0  0  0  0
   12.3810   12.0520    2.5360 N   0  0  0  0  0  4  0  0  0  0  0  0
   16.9845   13.5077    2.7878 H   0  0  0  0  0  0  0  0  0  0  0  0
   14.8302   12.3092    2.5371 H   0  0  0  0  0  0  0  0  0  0  0  0
   12.9853   15.0902    5.2712 H   0  0  0  0  0  0  0  0  0  0  0  0
   15.1465   16.2800    5.5207 H   0  0  0  0  0  0  0  0  0  0  0  0
   20.3385   16.3814    7.1497 H   0  0  0  0  0  0  0  0  0  0  0  0
   20.3850   14.8694    6.1810 H   0  0  0  0  0  0  0  0  0  0  0  0
   21.7969   15.9798    6.1810 H   0  0  0  0  0  0  0  0  0  0  0  0
   20.8438   17.3539    4.8094 H   0  0  0  0  0  0  0  0  0  0  0  0
   19.7886   16.4350    2.9303 H   0  0  0  0  0  0  0  0  0  0  0  0
   20.8172   15.1501    3.6945 H   0  0  0  0  0  0  0  0  0  0  0  0
   18.5373   14.3306    2.9919 H   0  0  0  0  0  0  0  0  0  0  0  0
   18.8800   14.1460    4.7563 H   0  0  0  0  0  0  0  0  0  0  0  0
   16.7108   17.1083    5.5918 H   0  0  0  0  0  0  0  0  0  0  0  0
   17.7506   15.8405    6.3529 H   0  0  0  0  0  0  0  0  0  0  0  0
   18.9823   17.9476    6.3263 H   0  0  0  0  0  0  0  0  0  0  0  0
   18.6597   18.1341    4.5479 H   0  0  0  0  0  0  0  0  0  0  0  0
   12.3321   12.3016    4.6654 H   0  0  0  0  0  0  0  0  0  0  0  0
   10.8907   14.0790    4.7419 H   0  0  0  0  0  0  0  0  0  0  0  0
   11.4686   14.7676    3.1867 H   0  0  0  0  0  0  0  0  0  0  0  0
   10.3725   13.3445    3.1867 H   0  0  0  0  0  0  0  0  0  0  0  0
   12.3463   11.0611    2.8149 H   0  0  0  0  0  0  0  0  0  0  0  0
   11.5475   12.2804    1.9756 H   0  0  0  0  0  0  0  0  0  0  0  0
   13.2284   12.2214    1.9756 H   0  0  0  0  0  0  0  0  0  0  0  0
  2  1  2  0
  3  2  1  0
  4  3  2  0
  5  4  1  0
  6  5  2  0
  6  1  1  0
  8  7  1  0
  9  8  1  0
 10  9  1  0
 11  1  1  0
 11 10  1  0
 12 11  1  0
 13  8  1  0
 13 12  1  0
 14  4  1  0
 15 14  1  0
 16 14  1  0
  2 17  1  0
  3 18  1  0
  5 19  1  0
  6 20  1  0
  7 21  1  0
  7 22  1  0
  7 23  1  0
  8 24  1  0
  9 25  1  0
  9 26  1  0
 10 27  1  0
 10 28  1  0
 12 29  1  0
 12 30  1  0
 13 31  1  0
 13 32  1  0
 14 33  1  1
 15 34  1  0
 15 35  1  0
 15 36  1  0
 16 37  1  0
 16 38  1  0
 16 39  1  0
M  CHG  2   8   1  16   1
M  END
$$$$
=
     RDKit          3D

 29 29  0  0  0  0  0  0  0  0999 V2000
   16.8270   15.1380    4.2000 C   0  0  0  0  0  0  0  0  0  0  0  0
   18.0590   14.5080    3.9350 C   0  0  0  0  0  0  0  0  0  0  0  0
   18.0570   13.2920    3.2520 C   0  0  0  0  0  0  0  0  0  0  0  0
   16.8560   12.6860    2.8760 C   0  0  0  0  0  0  0  0  0  0  0  0
   15.6180   13.2790    3.1760 C   0  0  0  0  0  0  0  0  0  0  0  0
   15.6010   14.5310    3.8300 C   0  0  0  0  0  0  0  0  0  0  0  0
   14.3080   15.2080    4.2260 C   0  0  0  0  0  0  0  0  0  0  0  0
   16.8440   16.2220    6.3130 C   0  0  0  0  0  0  0  0  0  0  0  0
   16.7020   16.3180    4.8970 O   0  0  0  0  0  0  0  0  0  0  0  0
   19.1950   15.1240    4.3810 O   0  0  0  0  0  0  0  0  0  0  0  0
   19.7750   16.1350    3.5650 C   0  0  0  0  0  0  0  0  0  0  0  0
   14.3650   12.5700    2.7440 C   0  0  0  0  0  0  0  0  0  0  0  0
   13.9200   11.6050    3.7740 N   0  0  0  0  0  4  0  0  0  0  0  0
   19.0121   12.8046    3.0066 H   0  0  0  0  0  0  0  0  0  0  0  0
   16.8798   11.7281    2.3358 H   0  0  0  0  0  0  0  0  0  0  0  0
   14.2351   15.2462    5.3229 H   0  0  0  0  0  0  0  0  0  0  0  0
   14.2908   16.2308    3.8216 H   0  0  0  0  0  0  0  0  0  0  0  0
   13.4576   14.6395    3.8216 H   0  0  0  0  0  0  0  0  0  0  0  0
   16.0276   16.7740    6.8016 H   0  0  0  0  0  0  0  0  0  0  0  0
   16.8039   15.1649    6.6147 H   0  0  0  0  0  0  0  0  0  0  0  0
   17.8100   16.6531    6.6147 H   0  0  0  0  0  0  0  0  0  0  0  0
   20.2204   16.9115    4.2043 H   0  0  0  0  0  0  0  0  0  0  0  0
   20.5555   15.6907    2.9299 H   0  0  0  0  0  0  0  0  0  0  0  0
   18.9974   16.5845    2.9299 H   0  0  0  0  0  0  0  0  0  0  0  0
   13.5702   13.3124    2.5792 H   0  0  0  0  0  0  0  0  0  0  0  0
   14.5762   12.0192    1.8155 H   0  0  0  0  0  0  0  0  0  0  0  0
   14.0998   11.9949    4.7103 H   0  0  0  0  0  0  0  0  0  0  0  0
   12.9115   11.4264    3.6643 H   0  0  0  0  0  0  0  0  0  0  0  0
   14.4389   10.7221    3.6643 H   0  0  0  0  0  0  0  0  0  0  0  0
  2  1  2  0
  3  2  1  0
  4  3  2  0
  5  4  1  0
  6  5  2  0
  6  1  1  0
  7  6  1  0
  9  1  1  0
  9  8  1  0
 10  2  1  0
 11 10  1  0
 12  5  1  0
 13 12  1  0
  3 14  1  0
  4 15  1  0
  7 16  1  0
  7 17  1  0
  7 18  1  0
  8 19  1  0
  8 20  1  0
  8 21  1  0
 11 22  1  0
 11 23  1  0
 11 24  1  0
 12 25  1  0
 12 26  1  0
 13 27  1  0
 13 28  1  0
 13 29  1  0
M  CHG  1  13   1
M  END
$$$$
=
     RDKit          3D

 37 37  0  0  0  0  0  0  0  0999 V2000
   15.4760   15.7530    4.8410 C   0  0  0  0  0  0  0  0  0  0  0  0
   15.0240   14.3230    4.4780 N   0  0  0  0  0  4  0  0  0  0  0  0
   15.7300   13.7910    3.2260 C   0  0  0  0  0  0  0  0  0  0  0  0
   15.1990   12.3920    2.8250 C   0  0  0  0  0  0  0  0  0  0  0  0
   13.6970   12.3880    2.7030 N   0  0  0  0  0  4  0  0  0  0  0  0
   12.9800   12.8950    3.9290 C   0  0  0  0  0  0  0  0  0  0  0  0
   13.4910   14.2980    4.3340 C   0  0  0  0  0  0  0  0  0  0  0  0
   16.2160   15.8010    6.1740 C   0  0  0  0  0  0  0  0  0  0  0  0
   17.9550   16.9430    4.9310 N   0  0  0  0  0  0  0  0  0  0  0  0
   17.6870   15.9900    5.8790 C   0  0  0  0  0  0  0  0  0  0  0  0
   18.5350   15.3230    6.4600 O   0  0  0  0  0  0  0  0  0  0  0  0
   19.8060   18.4790    5.4300 C   0  0  0  0  0  0  0  0  0  0  0  0
   19.3280   17.3060    4.5780 C   0  0  0  0  0  0  0  0  0  0  0  0
   19.4140   17.6430    3.0930 C   0  0  0  0  0  0  0  0  0  0  0  0
   16.1448   16.1248    4.0507 H   0  0  0  0  0  0  0  0  0  0  0  0
   14.5764   16.3796    4.9307 H   0  0  0  0  0  0  0  0  0  0  0  0
   15.2972   13.6867    5.2405 H   0  0  0  0  0  0  0  0  0  0  0  0
   15.5580   14.4903    2.3945 H   0  0  0  0  0  0  0  0  0  0  0  0
   16.8038   13.7018    3.4474 H   0  0  0  0  0  0  0  0  0  0  0  0
   15.6374   12.1067    1.8573 H   0  0  0  0  0  0  0  0  0  0  0  0
   15.4844   11.6756    3.6094 H   0  0  0  0  0  0  0  0  0  0  0  0
   13.4354   12.9845    1.9051 H   0  0  0  0  0  0  0  0  0  0  0  0
   13.4113   11.4067    2.5755 H   0  0  0  0  0  0  0  0  0  0  0  0
   11.9023   12.9529    3.7164 H   0  0  0  0  0  0  0  0  0  0  0  0
   13.1740   12.1999    4.7592 H   0  0  0  0  0  0  0  0  0  0  0  0
   13.1930   15.0230    3.5622 H   0  0  0  0  0  0  0  0  0  0  0  0
   13.0496   14.5572    5.3077 H   0  0  0  0  0  0  0  0  0  0  0  0
   15.8444   16.6417    6.7783 H   0  0  0  0  0  0  0  0  0  0  0  0
   16.0534   14.8705    6.7377 H   0  0  0  0  0  0  0  0  0  0  0  0
   17.1720   17.4145    4.4561 H   0  0  0  0  0  0  0  0  0  0  0  0
   19.7024   18.2247    6.4952 H   0  0  0  0  0  0  0  0  0  0  0  0
   20.8618   18.6898    5.2044 H   0  0  0  0  0  0  0  0  0  0  0  0
   19.1983   19.3677    5.2044 H   0  0  0  0  0  0  0  0  0  0  0  0
   19.9862   16.4481    4.7797 H   0  0  0  0  0  0  0  0  0  0  0  0
   19.6844   18.7024    2.9725 H   0  0  0  0  0  0  0  0  0  0  0  0
   20.1801   17.0127    2.6177 H   0  0  0  0  0  0  0  0  0  0  0  0
   18.4396   17.4569    2.6177 H   0  0  0  0  0  0  0  0  0  0  0  0
  2  1  1  0
  3  2  1  0
  4  3  1  0
  5  4  1  0
  6  5  1  0
  7  6  1  0
  7  2  1  0
  8  1  1  0
 10  8  1  0
 10  9  1  0
 11 10  2  0
 13 12  1  0
 13  9  1  0
 14 13  1  0
  1 15  1  0
  1 16  1  0
  2 17  1  0
  3 18  1  0
  3 19  1  0
  4 20  1  0
  4 21  1  0
  5 22  1  0
  5 23  1  0
  6 24  1  0
  6 25  1  0
  7 26  1  0
  7 27  1  0
  8 28  1  0
  8 29  1  0
  9 30  1  0
 12 31  1  0
 12 32  1  0
 12 33  1  0
 13 34  1  0
 14 35  1  0
 14 36  1  0
 14 37  1  0
M  CHG  2   2   1   5   1
M  END
$$$$
=
     RDKit          3D

 38 40  0  0  0  0  0  0  0  0999 V2000
   12.5880   14.0300    3.9970 C   0  0  0  0  0  0  0  0  0  0  0  0
   12.9040   12.8190    3.3790 C   0  0  0  0  0  0  0  0  0  0  0  0
   14.2350   12.5070    3.0810 C   0  0  0  0  0  0  0  0  0  0  0  0
   15.2450   13.4100    3.4030 C   0  0  0  0  0  0  0  0  0  0  0  0
   14.9430   14.6260    4.0220 C   0  0  0  0  0  0  0  0  0  0  0  0
   13.6110   14.9300    4.3160 C   0  0  0  0  0  0  0  0  0  0  0  0
   16.0300   15.5550    4.3480 C   0  0  0  0  0  0  0  0  0  0  0  0
   17.3060   15.2470    4.0520 C   0  0  0  0  0  0  0  0  0  0  0  0
   17.6210   13.9370    3.3960 C   0  0  0  0  0  0  0  0  0  0  0  0
   18.7840   13.6480    3.1350 O   0  0  0  0  0  0  0  0  0  0  0  0
   16.5770   13.1070    3.1090 N   0  0  0  0  0  0  0  0  0  0  0  0
   10.2350   13.7750    3.7460 C   0  0  0  0  0  0  0  0  0  0  0  0
   11.3350   14.4560    4.3400 O   0  0  0  0  0  0  0  0  0  0  0  0
   18.5390   16.0620    4.3040 C   0  0  0  0  0  0  0  0  0  0  0  0
   19.3820   15.6560    5.4750 N   0  0  0  0  0  4  0  0  0  0  0  0
   20.8320   15.4310    5.1850 C   0  0  0  0  0  0  0  0  0  0  0  0
   21.5930   16.7020    5.1620 C   0  0  0  0  0  0  0  0  0  0  0  0
   21.6620   17.7620    4.2850 C   0  0  0  0  0  0  0  0  0  0  0  0
   22.5930   18.6740    4.8400 C   0  0  0  0  0  0  0  0  0  0  0  0
   23.0310   18.1140    6.0170 C   0  0  0  0  0  0  0  0  0  0  0  0
   22.4320   16.9110    6.2210 O   0  0  0  0  0  0  0  0  0  0  0  0
   12.1041   12.1077    3.1255 H   0  0  0  0  0  0  0  0  0  0  0  0
   14.4826   11.5521    2.5943 H   0  0  0  0  0  0  0  0  0  0  0  0
   13.3645   15.8853    4.8025 H   0  0  0  0  0  0  0  0  0  0  0  0
   15.8001   16.5122    4.8389 H   0  0  0  0  0  0  0  0  0  0  0  0
   16.7819   12.2077    2.6505 H   0  0  0  0  0  0  0  0  0  0  0  0
    9.5838   13.3718    4.5355 H   0  0  0  0  0  0  0  0  0  0  0  0
    9.6629   14.4771    3.1218 H   0  0  0  0  0  0  0  0  0  0  0  0
   10.6084   12.9498    3.1218 H   0  0  0  0  0  0  0  0  0  0  0  0
   19.1679   16.0036    3.4034 H   0  0  0  0  0  0  0  0  0  0  0  0
   18.1759   17.0724    4.5434 H   0  0  0  0  0  0  0  0  0  0  0  0
   19.3132   16.3976    6.1864 H   0  0  0  0  0  0  0  0  0  0  0  0
   19.0133   14.7450    5.7833 H   0  0  0  0  0  0  0  0  0  0  0  0
   21.2535   14.7779    5.9633 H   0  0  0  0  0  0  0  0  0  0  0  0
   20.9135   14.9661    4.1914 H   0  0  0  0  0  0  0  0  0  0  0  0
   21.1059   17.8771    3.3429 H   0  0  0  0  0  0  0  0  0  0  0  0
   22.9040   19.6392    4.4138 H   0  0  0  0  0  0  0  0  0  0  0  0
   23.7626   18.5744    6.6972 H   0  0  0  0  0  0  0  0  0  0  0  0
  2  1  2  0
  3  2  1  0
  4  3  2  0
  5  4  1  0
  6  5  2  0
  6  1  1  0
  7  5  1  0
  8  7  2  0
  9  8  1  0
 10  9  2  0
 11  4  1  0
 11  9  1  0
 13 12  1  0
 13  1  1  0
 14  8  1  0
 15 14  1  0
 16 15  1  0
 17 16  1  0
 18 17  2  0
 19 18  1  0
 20 19  2  0
 21 17  1  0
 21 20  1  0
  2 22  1  0
  3 23  1  0
  6 24  1  0
  7 25  1  0
 11 26  1  0
 12 27  1  0
 12 28  1  0
 12 29  1  0
 14 30  1  0
 14 31  1  0
 15 32  1  0
 15 33  1  0
 16 34  1  0
 16 35  1  0
 18 36  1  0
 19 37  1  0
 20 38  1  0
M  CHG  1  15   1
M  END
$$$$
=
     RDKit          3D

 32 33  0  0  0  0  0  0  0  0999 V2000
   14.7590   14.3430    3.7000 C   0  0  1  0  0  0  0  0  0  0  0  0
   15.0800   12.8400    3.4180 C   0  0  0  0  0  0  0  0  0  0  0  0
   13.9120   12.1110    2.7740 N   0  0  0  0  0  4  0  0  0  0  0  0
   12.5290   12.6250    3.1090 C   0  0  0  0  0  0  0  0  0  0  0  0
   12.4970   13.3560    4.4690 C   0  0  0  0  0  0  0  0  0  0  0  0
   13.4870   14.4930    4.5220 N   0  0  0  0  0  4  0  0  0  0  0  0
   18.1950   15.9150    4.3050 C   0  0  0  0  0  0  0  0  0  0  0  0
   18.0390   16.4200    5.5910 C   0  0  0  0  0  0  0  0  0  0  0  0
   16.8260   16.2570    6.2620 C   0  0  0  0  0  0  0  0  0  0  0  0
   15.7610   15.5900    5.6510 C   0  0  0  0  0  0  0  0  0  0  0  0
   15.8970   15.0810    4.3520 C   0  0  0  0  0  0  0  0  0  0  0  0
   17.1270   15.2500    3.6930 C   0  0  0  0  0  0  0  0  0  0  0  0
   19.4680   17.1580    2.7250 C   0  0  0  0  0  0  0  0  0  0  0  0
   19.3180   15.9920    3.5320 O   0  0  0  0  0  0  0  0  0  0  0  0
   14.6027   14.8064    2.7147 H   0  0  0  0  0  0  0  0  0  0  0  0
   15.9470   12.7841    2.7434 H   0  0  0  0  0  0  0  0  0  0  0  0
   15.2890   12.3541    4.3825 H   0  0  0  0  0  0  0  0  0  0  0  0
   14.0297   12.1719    1.7526 H   0  0  0  0  0  0  0  0  0  0  0  0
   13.9462   11.1534    3.1518 H   0  0  0  0  0  0  0  0  0  0  0  0
   12.2099   13.3245    2.3223 H   0  0  0  0  0  0  0  0  0  0  0  0
   11.8514   11.7607    3.1719 H   0  0  0  0  0  0  0  0  0  0  0  0
   11.4860   13.7573    4.6330 H   0  0  0  0  0  0  0  0  0  0  0  0
   12.7688   12.6316    5.2509 H   0  0  0  0  0  0  0  0  0  0  0  0
   13.0035   15.3411    4.1936 H   0  0  0  0  0  0  0  0  0  0  0  0
   13.8046   14.5246    5.5013 H   0  0  0  0  0  0  0  0  0  0  0  0
   18.8713   16.9479    6.0795 H   0  0  0  0  0  0  0  0  0  0  0  0
   16.7075   16.6568    7.2799 H   0  0  0  0  0  0  0  0  0  0  0  0
   14.8115   15.4638    6.1918 H   0  0  0  0  0  0  0  0  0  0  0  0
   17.2524   14.8513    2.6755 H   0  0  0  0  0  0  0  0  0  0  0  0
   19.5815   18.0400    3.3725 H   0  0  0  0  0  0  0  0  0  0  0  0
   20.3599   17.0522    2.0900 H   0  0  0  0  0  0  0  0  0  0  0  0
   18.5783   17.2814    2.0900 H   0  0  0  0  0  0  0  0  0  0  0  0
  2  1  1  0
  3  2  1  0
  4  3  1  0
  5  4  1  0
  6  5  1  0
  6  1  1  0
  8  7  2  0
  9  8  1  0
 10  9  2  0
 11  1  1  0
 11 10  1  0
 12 11  2  0
 12  7  1  0
 14  7  1  0
 14 13  1  0
  1 15  1  6
  2 16  1  0
  2 17  1  0
  3 18  1  0
  3 19  1  0
  4 20  1  0
  4 21  1  0
  5 22  1  0
  5 23  1  0
  6 24  1  0
  6 25  1  0
  8 26  1  0
  9 27  1  0
 10 28  1  0
 12 29  1  0
 13 30  1  0
 13 31  1  0
 13 32  1  0
M  CHG  2   3   1   6   1
M  END
$$$$
=
     RDKit          3D

 45 45  0  0  0  0  0  0  0  0999 V2000
   17.8140   14.8870    3.5480 O   0  0  0  0  0  0  0  0  0  0  0  0
   16.5460   14.3770    3.6400 C   0  0  0  0  0  0  0  0  0  0  0  0
   16.1250   13.3940    2.7370 C   0  0  0  0  0  0  0  0  0  0  0  0
   14.8110   12.9220    2.7820 C   0  0  0  0  0  0  0  0  0  0  0  0
   13.9180   13.4470    3.7250 C   0  0  0  0  0  0  0  0  0  0  0  0
   14.3270   14.4480    4.6210 C   0  0  0  0  0  0  0  0  0  0  0  0
   15.6450   14.9200    4.5710 C   0  0  0  0  0  0  0  0  0  0  0  0
   16.1000   15.9610    5.5350 C   0  0  0  0  0  0  0  0  0  0  0  0
   16.2430   17.1240    5.1570 O   0  0  0  0  0  0  0  0  0  0  0  0
   16.4090   15.5450    6.9510 C   0  0  0  0  0  0  0  0  0  0  0  0
   12.5380   12.9460    3.7780 N   0  0  0  0  0  4  0  0  0  0  0  0
   12.1500   12.2350    2.8410 O   0  0  0  0  0  0  0  0  0  0  0  0
   11.8540   13.2630    4.7600 O   0  0  0  0  0  1  0  0  0  0  0  0
   18.7940   14.0670    4.1990 C   0  0  0  0  0  0  0  0  0  0  0  0
   19.5200   14.9490    5.2210 C   0  0  1  0  0  0  0  0  0  0  0  0
   19.7710   14.2370    6.4500 O   0  0  0  0  0  0  0  0  0  0  0  0
   20.8980   15.3950    4.7200 C   0  0  0  0  0  0  0  0  0  0  0  0
   21.1830   16.7270    5.3700 N   0  0  0  0  0  4  0  0  0  0  0  0
   20.8510   18.0080    4.6550 C   0  0  0  0  0  0  0  0  0  0  0  0
   19.8160   18.7350    5.5240 C   0  0  0  0  0  0  0  0  0  0  0  0
   22.1110   18.8670    4.5240 C   0  0  0  0  0  0  0  0  0  0  0  0
   20.2490   17.6800    3.2870 C   0  0  0  0  0  0  0  0  0  0  0  0
   16.8284   12.9933    1.9923 H   0  0  0  0  0  0  0  0  0  0  0  0
   14.4793   12.1422    2.0807 H   0  0  0  0  0  0  0  0  0  0  0  0
   13.6185   14.8579    5.3558 H   0  0  0  0  0  0  0  0  0  0  0  0
   15.9034   16.2257    7.6517 H   0  0  0  0  0  0  0  0  0  0  0  0
   16.0535   14.5174    7.1171 H   0  0  0  0  0  0  0  0  0  0  0  0
   17.4955   15.5885    7.1171 H   0  0  0  0  0  0  0  0  0  0  0  0
   18.3020   13.2261    4.7097 H   0  0  0  0  0  0  0  0  0  0  0  0
   19.5039   13.6535    3.4675 H   0  0  0  0  0  0  0  0  0  0  0  0
   18.8555   15.8114    5.3779 H   0  0  0  0  0  0  0  0  0  0  0  0
   19.5640   14.8242    7.2197 H   0  0  0  0  0  0  0  0  0  0  0  0
   21.6633   14.6599    5.0097 H   0  0  0  0  0  0  0  0  0  0  0  0
   20.9136   15.4775    3.6232 H   0  0  0  0  0  0  0  0  0  0  0  0
   20.6616   16.7403    6.2582 H   0  0  0  0  0  0  0  0  0  0  0  0
   22.2116   16.7472    5.4191 H   0  0  0  0  0  0  0  0  0  0  0  0
   20.0493   18.5711    6.5864 H   0  0  0  0  0  0  0  0  0  0  0  0
   19.8447   19.8124    5.3042 H   0  0  0  0  0  0  0  0  0  0  0  0
   18.8122   18.3425    5.3042 H   0  0  0  0  0  0  0  0  0  0  0  0
   22.4862   19.1228    5.5259 H   0  0  0  0  0  0  0  0  0  0  0  0
   22.8821   18.3057    3.9760 H   0  0  0  0  0  0  0  0  0  0  0  0
   21.8703   19.7899    3.9760 H   0  0  0  0  0  0  0  0  0  0  0  0
   19.2906   17.1578    3.4238 H   0  0  0  0  0  0  0  0  0  0  0  0
   20.0821   18.6119    2.7269 H   0  0  0  0  0  0  0  0  0  0  0  0
   20.9415   17.0345    2.7269 H   0  0  0  0  0  0  0  0  0  0  0  0
  2  1  1  0
  3  2  2  0
  4  3  1  0
  5  4  2  0
  6  5  1  0
  7  6  2  0
  7  2  1  0
  8  7  1  0
  9  8  2  0
 10  8  1  0
 11  5  1  0
 12 11  2  0
 13 11  1  0
 14  1  1  0
 15 14  1  0
 16 15  1  0
 17 15  1  0
 18 17  1  0
 19 18  1  0
 20 19  1  0
 21 19  1  0
 22 19  1  0
  3 23  1  0
  4 24  1  0
  6 25  1  0
 10 26  1  0
 10 27  1  0
 10 28  1  0
 14 29  1  0
 14 30  1  0
 15 31  1  1
 16 32  1  0
 17 33  1  0
 17 34  1  0
 18 35  1  0
 18 36  1  0
 20 37  1  0
 20 38  1  0
 20 39  1  0
 21 40  1  0
 21 41  1  0
 21 42  1  0
 22 43  1  0
 22 44  1  0
 22 45  1  0
M  CHG  3  11   1  13  -1  18   1
M  END
$$$$
=
     RDKit          3D

 41 42  0  0  0  0  0  0  0  0999 V2000
   29.2710   26.5900   16.1470 C   0  0  0  0  0  0  0  0  0  0  0  0
   30.1220   26.3160   17.2330 C   0  0  0  0  0  0  0  0  0  0  0  0
   30.7880   25.0950   17.3330 C   0  0  0  0  0  0  0  0  0  0  0  0
   30.6200   24.1300   16.3480 C   0  0  0  0  0  0  0  0  0  0  0  0
   29.7980   24.3880   15.2510 C   0  0  0  0  0  0  0  0  0  0  0  0
   29.1370   25.6170   15.1330 C   0  0  0  0  0  0  0  0  0  0  0  0
   28.5490   27.9340   16.0490 C   0  0  1  0  0  0  0  0  0  0  0  0
   28.1750   28.5080   17.4220 C   0  0  0  0  0  0  0  0  0  0  0  0
   30.5110   29.5810   16.0030 C   0  0  0  0  0  0  0  0  0  0  0  0
   29.3970   28.9130   15.2110 C   0  0  0  0  0  0  0  0  0  0  0  0
   28.3320   25.9490   14.0750 O   0  0  0  0  0  0  0  0  0  0  0  0
   28.9390   26.0150   12.7880 C   0  0  0  0  0  0  0  0  0  0  0  0
   27.8310   25.7710   11.7720 C   0  0  1  0  0  0  0  0  0  0  0  0
   27.9130   24.3850   11.1510 C   0  0  0  0  0  0  0  0  0  0  0  0
   26.5160   24.1320   10.6530 N   0  0  0  0  0  4  0  0  0  0  0  0
   25.5960   25.1440   11.2720 C   0  0  0  0  0  0  0  0  0  0  0  0
   26.4290   25.7980   12.3580 C   0  0  0  0  0  0  0  0  0  0  0  0
   30.2642   27.0763   18.0151 H   0  0  0  0  0  0  0  0  0  0  0  0
   31.4462   24.8960   18.1916 H   0  0  0  0  0  0  0  0  0  0  0  0
   31.1354   23.1620   16.4332 H   0  0  0  0  0  0  0  0  0  0  0  0
   29.6681   23.6210   14.4733 H   0  0  0  0  0  0  0  0  0  0  0  0
   27.5890   27.7742   15.5362 H   0  0  0  0  0  0  0  0  0  0  0  0
   28.5922   27.8677   18.2131 H   0  0  0  0  0  0  0  0  0  0  0  0
   28.5848   29.5242   17.5186 H   0  0  0  0  0  0  0  0  0  0  0  0
   27.0798   28.5436   17.5186 H   0  0  0  0  0  0  0  0  0  0  0  0
   30.3165   29.4643   17.0794 H   0  0  0  0  0  0  0  0  0  0  0  0
   31.4729   29.1106   15.7511 H   0  0  0  0  0  0  0  0  0  0  0  0
   30.5491   30.6511   15.7511 H   0  0  0  0  0  0  0  0  0  0  0  0
   28.7342   29.6959   14.8138 H   0  0  0  0  0  0  0  0  0  0  0  0
   29.8743   28.3263   14.4123 H   0  0  0  0  0  0  0  0  0  0  0  0
   29.3872   27.0071   12.6301 H   0  0  0  0  0  0  0  0  0  0  0  0
   29.7405   25.2682   12.6883 H   0  0  0  0  0  0  0  0  0  0  0  0
   27.9883   26.5888   11.0533 H   0  0  0  0  0  0  0  0  0  0  0  0
   28.6340   24.3697   10.3204 H   0  0  0  0  0  0  0  0  0  0  0  0
   28.2563   23.6195   11.8625 H   0  0  0  0  0  0  0  0  0  0  0  0
   26.4916   24.2225    9.6273 H   0  0  0  0  0  0  0  0  0  0  0  0
   26.2174   23.1807   10.9113 H   0  0  0  0  0  0  0  0  0  0  0  0
   25.2765   25.8868   10.5263 H   0  0  0  0  0  0  0  0  0  0  0  0
   24.6763   24.6878   11.6670 H   0  0  0  0  0  0  0  0  0  0  0  0
   26.0974   26.8302   12.5437 H   0  0  0  0  0  0  0  0  0  0  0  0
   26.3541   25.2880   13.3297 H   0  0  0  0  0  0  0  0  0  0  0  0
  2  1  2  0
  3  2  1  0
  4  3  2  0
  5  4  1  0
  6  5  2  0
  6  1  1  0
  7  1  1  0
  8  7  1  0
 10  9  1  0
 10  7  1  0
 11  6  1  0
 12 11  1  0
 13 12  1  0
 14 13  1  0
 15 14  1  0
 16 15  1  0
 17 16  1  0
 17 13  1  0
  2 18  1  0
  3 19  1  0
  4 20  1  0
  5 21  1  0
  7 22  1  6
  8 23  1  0
  8 24  1  0
  8 25  1  0
  9 26  1  0
  9 27  1  0
  9 28  1  0
 10 29  1  0
 10 30  1  0
 12 31  1  0
 12 32  1  0
 13 33  1  6
 14 34  1  0
 14 35  1  0
 15 36  1  0
 15 37  1  0
 16 38  1  0
 16 39  1  0
 17 40  1  0
 17 41  1  0
M  CHG  1  15   1
M  END
$$$$
=
     RDKit          3D

 32 34  0  0  0  0  0  0  0  0999 V2000
   20.5320   14.9950    3.8790 O   0  0  0  0  0  0  0  0  0  0  0  0
   19.3540   14.6730    3.7590 C   0  0  0  0  0  0  0  0  0  0  0  0
   18.9220   13.4390    3.3190 O   0  0  0  0  0  0  0  0  0  0  0  0
   17.5430   13.5360    3.3200 C   0  0  0  0  0  0  0  0  0  0  0  0
   17.0440   14.7530    3.7610 C   0  0  0  0  0  0  0  0  0  0  0  0
   18.1950   15.6020    4.1330 C   0  0  2  0  0  0  0  0  0  0  0  0
   18.3240   16.9030    3.3370 C   0  0  0  0  0  0  0  0  0  0  0  0
   19.3230   17.7570    4.1190 C   0  0  0  0  0  0  0  0  0  0  0  0
   19.4310   17.1260    5.4820 N   0  0  0  0  0  4  0  0  0  0  0  0
   18.3440   16.0610    5.6020 C   0  0  0  0  0  0  0  0  0  0  0  0
   18.8110   14.9980    6.6040 C   0  0  0  0  0  0  0  0  0  0  0  0
   17.1050   16.7700    6.1810 C   0  0  0  0  0  0  0  0  0  0  0  0
   15.6790   14.9920    3.7550 C   0  0  0  0  0  0  0  0  0  0  0  0
   14.8280   13.9680    3.3300 C   0  0  0  0  0  0  0  0  0  0  0  0
   15.3430   12.7340    2.9070 C   0  0  0  0  0  0  0  0  0  0  0  0
   16.7190   12.5110    2.8950 C   0  0  0  0  0  0  0  0  0  0  0  0
   18.7013   16.6992    2.3240 H   0  0  0  0  0  0  0  0  0  0  0  0
   17.3548   17.4098    3.2196 H   0  0  0  0  0  0  0  0  0  0  0  0
   20.3023   17.7546    3.6180 H   0  0  0  0  0  0  0  0  0  0  0  0
   18.9929   18.8042    4.1849 H   0  0  0  0  0  0  0  0  0  0  0  0
   20.3584   16.6917    5.5927 H   0  0  0  0  0  0  0  0  0  0  0  0
   19.3122   17.8398    6.2150 H   0  0  0  0  0  0  0  0  0  0  0  0
   18.6501   15.3642    7.6287 H   0  0  0  0  0  0  0  0  0  0  0  0
   18.2366   14.0724    6.4510 H   0  0  0  0  0  0  0  0  0  0  0  0
   19.8812   14.7949    6.4510 H   0  0  0  0  0  0  0  0  0  0  0  0
   17.1484   16.7452    7.2799 H   0  0  0  0  0  0  0  0  0  0  0  0
   17.0870   17.8151    5.8383 H   0  0  0  0  0  0  0  0  0  0  0  0
   16.1948   16.2560    5.8383 H   0  0  0  0  0  0  0  0  0  0  0  0
   15.2753   15.9634    4.0767 H   0  0  0  0  0  0  0  0  0  0  0  0
   13.7403   14.1320    3.3272 H   0  0  0  0  0  0  0  0  0  0  0  0
   14.6571   11.9375    2.5828 H   0  0  0  0  0  0  0  0  0  0  0  0
   17.1355   11.5503    2.5582 H   0  0  0  0  0  0  0  0  0  0  0  0
  2  1  2  0
  3  2  1  0
  4  3  1  0
  5  4  2  0
  6  5  1  0
  6  2  1  6
  7  6  1  0
  8  7  1  0
  9  8  1  0
 10  6  1  0
 10  9  1  0
 11 10  1  0
 12 10  1  0
 13  5  1  0
 14 13  2  0
 15 14  1  0
 16 15  2  0
 16  4  1  0
  7 17  1  0
  7 18  1  0
  8 19  1  0
  8 20  1  0
  9 21  1  0
  9 22  1  0
 11 23  1  0
 11 24  1  0
 11 25  1  0
 12 26  1  0
 12 27  1  0
 12 28  1  0
 13 29  1  0
 14 30  1  0
 15 31  1  0
 16 32  1  0
M  CHG  1   9   1
M  END
$$$$
=
     RDKit          3D

 36 36  0  0  0  0  0  0  0  0999 V2000
   19.4000   14.8710    3.3220 N   0  0  0  0  0  4  0  0  0  0  0  0
   18.1590   14.0790    3.6040 C   0  0  0  0  0  0  0  0  0  0  0  0
   17.0000   14.9790    4.1160 C   0  0  0  0  0  0  0  0  0  0  0  0
   14.4690   15.3100    4.1110 C   0  0  0  0  0  0  0  0  0  0  0  0
   15.6790   14.7520    3.3930 N   0  0  0  0  0  4  0  0  0  0  0  0
   15.4630   13.2720    3.1080 C   0  0  0  0  0  0  0  0  0  0  0  0
   19.3570   16.3010    3.8060 C   0  0  0  0  0  0  0  0  0  0  0  0
   20.5150   16.6180    4.6660 C   0  0  0  0  0  0  0  0  0  0  0  0
   20.8930   16.0130    5.8980 C   0  0  0  0  0  0  0  0  0  0  0  0
   20.2290   14.9070    6.6380 C   0  0  0  0  0  0  0  0  0  0  0  0
   22.0080   16.5590    6.3940 N   0  0  0  0  0  0  0  0  0  0  0  0
   22.3280   17.5370    5.5300 N   0  0  0  0  0  0  0  0  0  0  0  0
   21.4710   17.5900    4.4760 C   0  0  0  0  0  0  0  0  0  0  0  0
   21.5260   18.4230    3.4260 F   0  0  0  0  0  0  0  0  0  0  0  0
   23.4770   18.3730    5.7790 C   0  0  0  0  0  0  0  0  0  0  0  0
   20.1928   14.4002    3.7811 H   0  0  0  0  0  0  0  0  0  0  0  0
   19.4931   14.9125    2.2971 H   0  0  0  0  0  0  0  0  0  0  0  0
   17.8384   13.5790    2.6782 H   0  0  0  0  0  0  0  0  0  0  0  0
   18.3939   13.3462    4.3901 H   0  0  0  0  0  0  0  0  0  0  0  0
   16.8491   14.7744    5.1862 H   0  0  0  0  0  0  0  0  0  0  0  0
   17.2951   16.0211    3.9237 H   0  0  0  0  0  0  0  0  0  0  0  0
   14.6226   15.2392    5.1979 H   0  0  0  0  0  0  0  0  0  0  0  0
   14.3286   16.3638    3.8284 H   0  0  0  0  0  0  0  0  0  0  0  0
   13.5764   14.7326    3.8284 H   0  0  0  0  0  0  0  0  0  0  0  0
   15.7645   15.2777    2.5114 H   0  0  0  0  0  0  0  0  0  0  0  0
   15.3829   12.7235    4.0581 H   0  0  0  0  0  0  0  0  0  0  0  0
   14.5363   13.1413    2.5300 H   0  0  0  0  0  0  0  0  0  0  0  0
   16.3137   12.8819    2.5300 H   0  0  0  0  0  0  0  0  0  0  0  0
   19.3642   16.9731    2.9353 H   0  0  0  0  0  0  0  0  0  0  0  0
   18.4404   16.4366    4.3988 H   0  0  0  0  0  0  0  0  0  0  0  0
   20.3309   15.0767    7.7200 H   0  0  0  0  0  0  0  0  0  0  0  0
   19.1625   14.8754    6.3707 H   0  0  0  0  0  0  0  0  0  0  0  0
   20.7025   13.9508    6.3707 H   0  0  0  0  0  0  0  0  0  0  0  0
   23.6243   18.4802    6.8638 H   0  0  0  0  0  0  0  0  0  0  0  0
   24.3698   17.9119    5.3315 H   0  0  0  0  0  0  0  0  0  0  0  0
   23.3130   19.3644    5.3315 H   0  0  0  0  0  0  0  0  0  0  0  0
  2  1  1  0
  3  2  1  0
  5  4  1  0
  5  3  1  0
  6  5  1  0
  7  1  1  0
  8  7  1  0
  9  8  1  0
 10  9  1  0
 11  9  2  0
 12 11  1  0
 13  8  2  0
 13 12  1  0
 14 13  1  0
 15 12  1  0
  1 16  1  0
  1 17  1  0
  2 18  1  0
  2 19  1  0
  3 20  1  0
  3 21  1  0
  4 22  1  0
  4 23  1  0
  4 24  1  0
  5 25  1  0
  6 26  1  0
  6 27  1  0
  6 28  1  0
  7 29  1  0
  7 30  1  0
 10 31  1  0
 10 32  1  0
 10 33  1  0
 15 34  1  0
 15 35  1  0
 15 36  1  0
M  CHG  2   1   1   5   1
M  END
$$$$
=
     RDKit          3D

 32 33  0  0  0  0  0  0  0  0999 V2000
   20.5580   15.8510    5.0690 C   0  0  2  0  0  0  0  0  0  0  0  0
   20.6910   17.3240    5.4930 C   0  0  0  0  0  0  0  0  0  0  0  0
   20.6280   18.2830    4.3120 C   0  0  0  0  0  0  0  0  0  0  0  0
   19.4440   17.9780    3.4660 N   0  0  0  0  0  4  0  0  0  0  0  0
   19.4500   16.5840    2.9190 C   0  0  0  0  0  0  0  0  0  0  0  0
   19.3950   15.5670    4.0720 C   0  0  2  0  0  0  0  0  0  0  0  0
   17.9610   15.4640    4.5850 C   0  0  0  0  0  0  0  0  0  0  0  0
   16.9850   14.9690    3.6960 C   0  0  0  0  0  0  0  0  0  0  0  0
   15.6420   14.8840    4.0620 C   0  0  0  0  0  0  0  0  0  0  0  0
   15.2410   15.2930    5.3280 C   0  0  0  0  0  0  0  0  0  0  0  0
   16.1860   15.7770    6.2250 C   0  0  0  0  0  0  0  0  0  0  0  0
   17.5340   15.8620    5.8580 C   0  0  0  0  0  0  0  0  0  0  0  0
   20.5880   14.8970    6.2670 C   0  0  0  0  0  0  0  0  0  0  0  0
   21.4440   15.4490    7.2550 O   0  0  0  0  0  0  0  0  0  0  0  0
   21.4616   15.6362    4.4796 H   0  0  0  0  0  0  0  0  0  0  0  0
   19.8724   17.5658    6.1868 H   0  0  0  0  0  0  0  0  0  0  0  0
   21.6758   17.4456    5.9678 H   0  0  0  0  0  0  0  0  0  0  0  0
   20.5517   19.3149    4.6854 H   0  0  0  0  0  0  0  0  0  0  0  0
   21.5401   18.1689    3.7077 H   0  0  0  0  0  0  0  0  0  0  0  0
   18.5947   18.1021    4.0354 H   0  0  0  0  0  0  0  0  0  0  0  0
   19.4697   18.6213    2.6620 H   0  0  0  0  0  0  0  0  0  0  0  0
   18.5746   16.4443    2.2678 H   0  0  0  0  0  0  0  0  0  0  0  0
   20.3729   16.4263    2.3417 H   0  0  0  0  0  0  0  0  0  0  0  0
   19.6050   14.5305    3.7694 H   0  0  0  0  0  0  0  0  0  0  0  0
   17.2898   14.6424    2.6908 H   0  0  0  0  0  0  0  0  0  0  0  0
   14.9008   14.4935    3.3491 H   0  0  0  0  0  0  0  0  0  0  0  0
   14.1817   15.2341    5.6186 H   0  0  0  0  0  0  0  0  0  0  0  0
   15.8724   16.0954    7.2301 H   0  0  0  0  0  0  0  0  0  0  0  0
   18.2689   16.2471    6.5802 H   0  0  0  0  0  0  0  0  0  0  0  0
   19.5735   14.7818    6.6762 H   0  0  0  0  0  0  0  0  0  0  0  0
   20.9570   13.9087    5.9553 H   0  0  0  0  0  0  0  0  0  0  0  0
   21.0969   15.2252    8.1547 H   0  0  0  0  0  0  0  0  0  0  0  0
  2  1  1  0
  3  2  1  0
  4  3  1  0
  5  4  1  0
  6  1  1  0
  6  5  1  0
  7  6  1  0
  8  7  2  0
  9  8  1  0
 10  9  2  0
 11 10  1  0
 12 11  2  0
 12  7  1  0
 13  1  1  0
 14 13  1  0
  1 15  1  6
  2 16  1  0
  2 17  1  0
  3 18  1  0
  3 19  1  0
  4 20  1  0
  4 21  1  0
  5 22  1  0
  5 23  1  0
  6 24  1  6
  8 25  1  0
  9 26  1  0
 10 27  1  0
 11 28  1  0
 12 29  1  0
 13 30  1  0
 13 31  1  0
 14 32  1  0
M  CHG  1   4   1
M  END
$$$$
=
     RDKit          3D

 27 28  0  0  0  0  0  0  0  0999 V2000
   20.0040   16.6510    3.6630 C   0  0  0  0  0  0  0  0  0  0  0  0
   19.3580   15.5030    4.1040 C   0  0  0  0  0  0  0  0  0  0  0  0
   19.7710   14.8660    5.2180 N   0  0  0  0  0  0  0  0  0  0  0  0
   20.8010   15.3760    5.8910 C   0  0  0  0  0  0  0  0  0  0  0  0
   21.4810   16.4620    5.5290 N   0  0  0  0  0  0  0  0  0  0  0  0
   21.0690   17.0990    4.4260 C   0  0  0  0  0  0  0  0  0  0  0  0
   21.8330   18.2160    4.0800 N   0  0  0  0  0  0  0  0  0  0  0  0
   21.2120   14.7110    7.0250 N   0  0  0  0  0  0  0  0  0  0  0  0
   19.2010   17.8740    1.5310 N   0  0  0  0  0  0  0  0  0  0  0  0
   19.5900   17.3420    2.4870 C   0  0  0  0  0  0  0  0  0  0  0  0
   18.2710   14.9770    3.3570 N   0  0  0  0  0  0  0  0  0  0  0  0
   16.9120   14.8420    3.7230 C   0  0  0  0  0  0  0  0  0  0  0  0
   16.1820   13.7510    3.2230 C   0  0  0  0  0  0  0  0  0  0  0  0
   14.8500   13.5390    3.5930 C   0  0  0  0  0  0  0  0  0  0  0  0
   14.2320   14.4050    4.4910 C   0  0  0  0  0  0  0  0  0  0  0  0
   14.9500   15.4710    5.0250 C   0  0  0  0  0  0  0  0  0  0  0  0
   16.2820   15.6790    4.6500 C   0  0  0  0  0  0  0  0  0  0  0  0
   22.6163   18.5103    4.6806 H   0  0  0  0  0  0  0  0  0  0  0  0
   21.6131   18.7453    3.2242 H   0  0  0  0  0  0  0  0  0  0  0  0
   22.0048   15.0718    7.5747 H   0  0  0  0  0  0  0  0  0  0  0  0
   20.7265   13.8530    7.3233 H   0  0  0  0  0  0  0  0  0  0  0  0
   18.5069   14.6455    2.4107 H   0  0  0  0  0  0  0  0  0  0  0  0
   16.6670   13.0503    2.5275 H   0  0  0  0  0  0  0  0  0  0  0  0
   14.2912   12.6888    3.1749 H   0  0  0  0  0  0  0  0  0  0  0  0
   13.1816   14.2475    4.7770 H   0  0  0  0  0  0  0  0  0  0  0  0
   14.4694   16.1514    5.7433 H   0  0  0  0  0  0  0  0  0  0  0  0
   16.8435   16.5153    5.0919 H   0  0  0  0  0  0  0  0  0  0  0  0
  2  1  2  0
  3  2  1  0
  4  3  2  0
  5  4  1  0
  6  1  1  0
  6  5  2  0
  7  6  1  0
  8  4  1  0
 10  9  3  0
 10  1  1  0
 11  2  1  0
 12 11  1  0
 13 12  2  0
 14 13  1  0
 15 14  2  0
 16 15  1  0
 17 16  2  0
 17 12  1  0
  7 18  1  0
  7 19  1  0
  8 20  1  0
  8 21  1  0
 11 22  1  0
 13 23  1  0
 14 24  1  0
 15 25  1  0
 16 26  1  0
 17 27  1  0
M  END
$$$$
=
     RDKit          3D

 24 26  0  0  0  0  0  0  0  0999 V2000
   21.7950   18.0820    5.3450 C   0  0  0  0  0  0  0  0  0  0  0  0
   20.7040   18.8570    5.7240 C   0  0  0  0  0  0  0  0  0  0  0  0
   19.4020   18.4100    5.4840 C   0  0  0  0  0  0  0  0  0  0  0  0
   19.1630   17.1740    4.9060 C   0  0  0  0  0  0  0  0  0  0  0  0
   20.2690   16.3470    4.5680 C   0  0  0  0  0  0  0  0  0  0  0  0
   21.5550   16.8110    4.8150 C   0  0  0  0  0  0  0  0  0  0  0  0
   20.0980   15.1260    4.0190 N   0  0  0  0  0  0  0  0  0  0  0  0
   18.8260   14.7300    3.8050 C   0  0  0  0  0  0  0  0  0  0  0  0
   17.7560   15.5520    4.1380 C   0  0  0  0  0  0  0  0  0  0  0  0
   17.8950   16.7810    4.6910 N   0  0  0  0  0  0  0  0  0  0  0  0
   16.3990   15.0260    3.8620 C   0  0  0  0  0  0  0  0  0  0  0  0
   15.3720   15.6490    4.1040 O   0  0  0  0  0  0  0  0  0  0  0  0
   16.3610   13.7710    3.3030 N   0  0  0  0  0  0  0  0  0  0  0  0
   17.4840   13.0710    3.0250 C   0  0  0  0  0  0  0  0  0  0  0  0
   18.6880   13.4550    3.2320 N   0  0  0  0  0  0  0  0  0  0  0  0
   23.0920   18.4700    5.6930 N   0  0  0  0  0  0  0  0  0  0  0  0
   17.2490   11.8730    2.4850 O   0  0  0  0  0  0  0  0  0  0  0  0
   20.8671   19.8275    6.2155 H   0  0  0  0  0  0  0  0  0  0  0  0
   18.5515   19.0512    5.7590 H   0  0  0  0  0  0  0  0  0  0  0  0
   22.4104   16.1583    4.5865 H   0  0  0  0  0  0  0  0  0  0  0  0
   15.4460   13.3494    3.0886 H   0  0  0  0  0  0  0  0  0  0  0  0
   23.8960   17.8920    5.4095 H   0  0  0  0  0  0  0  0  0  0  0  0
   23.2437   19.3339    6.2329 H   0  0  0  0  0  0  0  0  0  0  0  0
   18.0055   11.2815    2.2444 H   0  0  0  0  0  0  0  0  0  0  0  0
  2  1  2  0
  3  2  1  0
  4  3  2  0
  5  4  1  0
  6  5  2  0
  6  1  1  0
  7  5  1  0
  8  7  2  0
  9  8  1  0
 10  9  2  0
 10  4  1  0
 11  9  1  0
 12 11  2  0
 13 11  1  0
 14 13  1  0
 15 14  2  0
 15  8  1  0
 16  1  1  0
 17 14  1  0
  2 18  1  0
  3 19  1  0
  6 20  1  0
 13 21  1  0
 16 22  1  0
 16 23  1  0
 17 24  1  0
M  END
$$$$
=
     RDKit          3D

 27 28  0  0  0  0  0  0  0  0999 V2000
   17.8440   16.1530    5.0940 N   0  0  0  0  0  0  0  0  0  0  0  0
   18.8310   16.8210    4.4220 C   0  0  0  0  0  0  0  0  0  0  0  0
   19.7410   17.4210    5.2530 N   0  0  0  0  0  0  0  0  0  0  0  0
   20.6890   18.1060    4.7240 C   0  0  0  0  0  0  0  0  0  0  0  0
   21.6190   18.7300    5.4890 N   0  0  0  0  0  0  0  0  0  0  0  0
   20.8010   18.2400    3.3950 N   0  0  0  0  0  0  0  0  0  0  0  0
   19.9480   17.5820    2.5730 C   0  0  0  0  0  0  0  0  0  0  0  0
   20.1370   17.6250    1.3600 O   0  0  0  0  0  0  0  0  0  0  0  0
   18.9220   16.9000    3.1380 N   0  0  0  0  0  0  0  0  0  0  0  0
   13.2750   13.1530    3.3370 C   0  0  0  0  0  0  0  0  0  0  0  0
   14.4810   13.9080    3.8070 C   0  0  0  0  0  0  0  0  0  0  0  0
   15.7370   13.6570    3.2500 C   0  0  0  0  0  0  0  0  0  0  0  0
   16.8620   14.3830    3.6650 C   0  0  0  0  0  0  0  0  0  0  0  0
   16.7650   15.3800    4.6400 C   0  0  0  0  0  0  0  0  0  0  0  0
   15.4910   15.6350    5.1760 C   0  0  0  0  0  0  0  0  0  0  0  0
   14.3640   14.9140    4.7650 C   0  0  0  0  0  0  0  0  0  0  0  0
   17.9041   16.2320    6.1192 H   0  0  0  0  0  0  0  0  0  0  0  0
   22.3712   19.2745    5.0434 H   0  0  0  0  0  0  0  0  0  0  0  0
   21.5730   18.6594    6.5155 H   0  0  0  0  0  0  0  0  0  0  0  0
   21.5356   18.8433    2.9985 H   0  0  0  0  0  0  0  0  0  0  0  0
   12.7042   12.7956    4.2067 H   0  0  0  0  0  0  0  0  0  0  0  0
   12.6412   13.8158    2.7296 H   0  0  0  0  0  0  0  0  0  0  0  0
   13.5943   12.2933    2.7296 H   0  0  0  0  0  0  0  0  0  0  0  0
   15.8445   12.8814    2.4775 H   0  0  0  0  0  0  0  0  0  0  0  0
   17.8411   14.1637    3.2142 H   0  0  0  0  0  0  0  0  0  0  0  0
   15.3768   16.4207    5.9374 H   0  0  0  0  0  0  0  0  0  0  0  0
   13.3801   15.1425    5.2005 H   0  0  0  0  0  0  0  0  0  0  0  0
  2  1  1  0
  3  2  1  0
  4  3  2  0
  5  4  1  0
  6  4  1  0
  7  6  1  0
  8  7  2  0
  9  7  1  0
  9  2  2  0
 11 10  1  0
 12 11  2  0
 13 12  1  0
 14 13  2  0
 14  1  1  0
 15 14  1  0
 16 15  2  0
 16 11  1  0
  1 17  1  0
  5 18  1  0
  5 19  1  0
  6 20  1  0
 10 21  1  0
 10 22  1  0
 10 23  1  0
 12 24  1  0
 13 25  1  0
 15 26  1  0
 16 27  1  0
M  END
$$$$
=
     RDKit          3D

 37 39  0  0  0  0  0  0  0  0999 V2000
   16.5420   14.5490    3.8020 C   0  0  0  0  0  0  0  0  0  0  0  0
   16.0040   15.2300    4.6710 O   0  0  0  0  0  0  0  0  0  0  0  0
   17.9050   14.3660    3.6340 N   0  0  0  0  0  0  0  0  0  0  0  0
   18.9560   14.9020    4.4040 C   0  0  0  0  0  0  0  0  0  0  0  0
   19.2880   14.4580    5.6880 C   0  0  0  0  0  0  0  0  0  0  0  0
   20.3530   15.0170    6.4120 C   0  0  0  0  0  0  0  0  0  0  0  0
   21.0660   16.0390    5.7910 C   0  0  0  0  0  0  0  0  0  0  0  0
   20.7630   16.5110    4.5220 C   0  0  0  0  0  0  0  0  0  0  0  0
   19.6950   15.9430    3.8150 C   0  0  0  0  0  0  0  0  0  0  0  0
   21.6220   17.5170    4.1530 N   0  0  0  0  0  0  0  0  0  0  0  0
   22.4430   17.6730    5.1710 C   0  0  0  0  0  0  0  0  0  0  0  0
   22.1390   16.7960    6.1850 N   0  0  0  0  0  0  0  0  0  0  0  0
   23.5590   18.6400    5.2730 C   0  0  0  0  0  0  0  0  0  0  0  0
   15.7150   13.7980    2.7690 C   0  0  0  0  0  0  0  0  0  0  0  0
   14.8600   12.3840    3.5210 S   0  0  0  0  0  0  0  0  0  0  0  0
   10.5840   13.7100    3.4910 C   0  0  0  0  0  0  0  0  0  0  0  0
   11.5340   14.3510    4.2550 C   0  0  0  0  0  0  0  0  0  0  0  0
   12.8420   14.0080    4.2750 N   0  0  0  0  0  0  0  0  0  0  0  0
   13.1830   12.9570    3.5050 C   0  0  0  0  0  0  0  0  0  0  0  0
   12.3270   12.2690    2.7340 N   0  0  0  0  0  0  0  0  0  0  0  0
   11.0420   12.6590    2.7210 C   0  0  0  0  0  0  0  0  0  0  0  0
   10.2020   11.8850    1.9250 N   0  0  0  0  0  0  0  0  0  0  0  0
    8.1170   14.4730    3.5770 N   0  0  0  0  0  0  0  0  0  0  0  0
    9.2220   14.1250    3.5220 C   0  0  0  0  0  0  0  0  0  0  0  0
   18.1850   13.7625    2.8477 H   0  0  0  0  0  0  0  0  0  0  0  0
   18.6984   13.6485    6.1431 H   0  0  0  0  0  0  0  0  0  0  0  0
   20.6117   14.6645    7.4214 H   0  0  0  0  0  0  0  0  0  0  0  0
   19.4374   16.3077    2.8097 H   0  0  0  0  0  0  0  0  0  0  0  0
   22.6325   16.7206    7.0859 H   0  0  0  0  0  0  0  0  0  0  0  0
   23.7814   18.8327    6.3329 H   0  0  0  0  0  0  0  0  0  0  0  0
   24.4506   18.2242    4.7810 H   0  0  0  0  0  0  0  0  0  0  0  0
   23.2743   19.5817    4.7810 H   0  0  0  0  0  0  0  0  0  0  0  0
   14.9686   14.4824    2.3395 H   0  0  0  0  0  0  0  0  0  0  0  0
   16.3902   13.4225    1.9860 H   0  0  0  0  0  0  0  0  0  0  0  0
   11.2097   15.1915    4.8861 H   0  0  0  0  0  0  0  0  0  0  0  0
   10.5901   11.1107    1.3676 H   0  0  0  0  0  0  0  0  0  0  0  0
    9.1924   12.0867    1.8935 H   0  0  0  0  0  0  0  0  0  0  0  0
  2  1  2  0
  3  1  1  0
  4  3  1  0
  5  4  2  0
  6  5  1  0
  7  6  2  0
  8  7  1  0
  9  4  1  0
  9  8  2  0
 10  8  1  0
 11 10  2  0
 12  7  1  0
 12 11  1  0
 13 11  1  0
 14  1  1  0
 15 14  1  0
 17 16  2  0
 18 17  1  0
 19 18  2  0
 19 15  1  0
 20 19  1  0
 21 16  1  0
 21 20  2  0
 22 21  1  0
 24 23  3  0
 24 16  1  0
  3 25  1  0
  5 26  1  0
  6 27  1  0
  9 28  1  0
 12 29  1  0
 13 30  1  0
 13 31  1  0
 13 32  1  0
 14 33  1  0
 14 34  1  0
 17 35  1  0
 22 36  1  0
 22 37  1  0
M  END
$$$$
=
     RDKit          3D

 59 60  0  0  0  0  0  0  0  0999 V2000
   18.0890   15.4040    5.0730 C   0  0  0  0  0  0  0  0  0  0  0  0
   17.0740   15.8540    5.9370 C   0  0  0  0  0  0  0  0  0  0  0  0
   15.7230   15.7980    5.5700 C   0  0  0  0  0  0  0  0  0  0  0  0
   15.3360   15.2830    4.3370 C   0  0  0  0  0  0  0  0  0  0  0  0
   16.3150   14.8030    3.4750 C   0  0  0  0  0  0  0  0  0  0  0  0
   17.6680   14.8590    3.8430 C   0  0  0  0  0  0  0  0  0  0  0  0
   19.6020   15.4330    5.4620 C   0  0  0  0  0  0  0  0  0  0  0  0
   19.7760   14.3570    6.5570 C   0  0  0  0  0  0  0  0  0  0  0  0
   20.4610   15.0540    4.2410 C   0  0  0  0  0  0  0  0  0  0  0  0
   20.0190   16.8490    6.0130 C   0  0  0  0  0  0  0  0  0  0  0  0
   21.4990   18.7680    5.0640 C   0  0  0  0  0  0  0  0  0  0  0  0
   20.0950   18.1580    5.1560 C   0  0  0  0  0  0  0  0  0  0  0  0
   19.5220   17.9610    3.7390 C   0  0  0  0  0  0  0  0  0  0  0  0
   19.1850   19.2020    5.8560 C   0  0  0  0  0  0  0  0  0  0  0  0
   13.9890   15.2900    4.1080 O   0  0  0  0  0  0  0  0  0  0  0  0
   13.2280   14.2250    4.6670 C   0  0  0  0  0  0  0  0  0  0  0  0
   13.0380   13.1800    3.5640 C   0  0  0  0  0  0  0  0  0  0  0  0
   11.6580   13.2240    2.8880 C   0  0  1  0  0  0  0  0  0  0  0  0
   11.3030   11.8260    2.3490 C   0  0  0  0  0  0  0  0  0  0  0  0
    9.9070   11.7930    1.7290 C   0  0  0  0  0  0  0  0  0  0  0  0
    8.8550   12.2950    2.7010 C   0  0  0  0  0  0  0  0  0  0  0  0
    9.2390   13.6580    3.1720 N   0  0  0  0  0  4  0  0  0  0  0  0
   10.5710   13.7160    3.8500 C   0  0  0  0  0  0  0  0  0  0  0  0
   17.3471   16.2588    6.9226 H   0  0  0  0  0  0  0  0  0  0  0  0
   14.9566   16.1669    6.2675 H   0  0  0  0  0  0  0  0  0  0  0  0
   16.0284   14.3781    2.5017 H   0  0  0  0  0  0  0  0  0  0  0  0
   18.4249   14.4647    3.1489 H   0  0  0  0  0  0  0  0  0  0  0  0
   19.7000   14.8272    7.5485 H   0  0  0  0  0  0  0  0  0  0  0  0
   18.9893   13.5955    6.4510 H   0  0  0  0  0  0  0  0  0  0  0  0
   20.7626   13.8822    6.4510 H   0  0  0  0  0  0  0  0  0  0  0  0
   21.4177   14.6319    4.5825 H   0  0  0  0  0  0  0  0  0  0  0  0
   19.9269   14.3080    3.6342 H   0  0  0  0  0  0  0  0  0  0  0  0
   20.6520   15.9514    3.6342 H   0  0  0  0  0  0  0  0  0  0  0  0
   19.3087   17.0695    6.8235 H   0  0  0  0  0  0  0  0  0  0  0  0
   21.0875   16.6786    6.2114 H   0  0  0  0  0  0  0  0  0  0  0  0
   21.8918   18.9386    6.0772 H   0  0  0  0  0  0  0  0  0  0  0  0
   22.1641   18.0777    4.5244 H   0  0  0  0  0  0  0  0  0  0  0  0
   21.4483   19.7252    4.5244 H   0  0  0  0  0  0  0  0  0  0  0  0
   18.4839   17.6041    3.8096 H   0  0  0  0  0  0  0  0  0  0  0  0
   19.5445   18.9185    3.1980 H   0  0  0  0  0  0  0  0  0  0  0  0
   20.1286   17.2198    3.1980 H   0  0  0  0  0  0  0  0  0  0  0  0
   19.2774   19.0960    6.9470 H   0  0  0  0  0  0  0  0  0  0  0  0
   19.4933   20.2152    5.5586 H   0  0  0  0  0  0  0  0  0  0  0  0
   18.1392   19.0349    5.5586 H   0  0  0  0  0  0  0  0  0  0  0  0
   13.7669   13.7821    5.5176 H   0  0  0  0  0  0  0  0  0  0  0  0
   12.2566   14.5883    5.0336 H   0  0  0  0  0  0  0  0  0  0  0  0
   13.8053   13.3474    2.7938 H   0  0  0  0  0  0  0  0  0  0  0  0
   13.1249   12.1938    4.0434 H   0  0  0  0  0  0  0  0  0  0  0  0
   11.7069   13.9396    2.0540 H   0  0  0  0  0  0  0  0  0  0  0  0
   12.0395   11.5426    1.5826 H   0  0  0  0  0  0  0  0  0  0  0  0
   11.3183   11.1208    3.1931 H   0  0  0  0  0  0  0  0  0  0  0  0
    9.8988   12.4305    0.8326 H   0  0  0  0  0  0  0  0  0  0  0  0
    9.6687   10.7508    1.4703 H   0  0  0  0  0  0  0  0  0  0  0  0
    7.8786   12.3407    2.1964 H   0  0  0  0  0  0  0  0  0  0  0  0
    8.7861   11.6110    3.5597 H   0  0  0  0  0  0  0  0  0  0  0  0
    9.2631   14.2872    2.3569 H   0  0  0  0  0  0  0  0  0  0  0  0
    8.5369   13.9399    3.8710 H   0  0  0  0  0  0  0  0  0  0  0  0
   10.7863   14.7532    4.1464 H   0  0  0  0  0  0  0  0  0  0  0  0
   10.5551   13.0742    4.7432 H   0  0  0  0  0  0  0  0  0  0  0  0
  2  1  2  0
  3  2  1  0
  4  3  2  0
  5  4  1  0
  6  5  2  0
  6  1  1  0
  7  1  1  0
  8  7  1  0
  9  7  1  0
 10  7  1  0
 12 11  1  0
 12 10  1  0
 13 12  1  0
 14 12  1  0
 15  4  1  0
 16 15  1  0
 17 16  1  0
 18 17  1  0
 19 18  1  0
 20 19  1  0
 21 20  1  0
 22 21  1  0
 23 22  1  0
 23 18  1  0
  2 24  1  0
  3 25  1  0
  5 26  1  0
  6 27  1  0
  8 28  1  0
  8 29  1  0
  8 30  1  0
  9 31  1  0
  9 32  1  0
  9 33  1  0
 10 34  1  0
 10 35  1  0
 11 36  1  0
 11 37  1  0
 11 38  1  0
 13 39  1  0
 13 40  1  0
 13 41  1  0
 14 42  1  0
 14 43  1  0
 14 44  1  0
 16 45  1  0
 16 46  1  0
 17 47  1  0
 17 48  1  0
 18 49  1  6
 19 50  1  0
 19 51  1  0
 20 52  1  0
 20 53  1  0
 21 54  1  0
 21 55  1  0
 22 56  1  0
 22 57  1  0
 23 58  1  0
 23 59  1  0
M  CHG  1  22   1
M  END
$$$$
=
     RDKit          3D

 42 44  0  0  0  0  0  0  0  0999 V2000
   16.8130   15.3670    4.3260 C   0  0  0  0  0  0  0  0  0  0  0  0
   16.5430   16.4170    5.1640 O   0  0  0  0  0  0  0  0  0  0  0  0
   17.7150   16.6550    5.8940 N   0  0  0  0  0  0  0  0  0  0  0  0
   18.5430   15.7030    5.4420 C   0  0  0  0  0  0  0  0  0  0  0  0
   18.0510   14.9290    4.4370 N   0  0  0  0  0  0  0  0  0  0  0  0
   13.4270   12.9800    3.9310 C   0  0  0  0  0  0  0  0  0  0  0  0
   13.6580   14.2330    4.7770 C   0  0  0  0  0  0  0  0  0  0  0  0
   14.3310   15.3440    3.9770 C   0  0  0  0  0  0  0  0  0  0  0  0
   15.7060   14.9160    3.4280 C   0  0  0  0  0  0  0  0  0  0  0  0
   15.8070   13.3980    3.1910 C   0  0  0  0  0  0  0  0  0  0  0  0
   14.4590   12.7970    2.8160 C   0  0  0  0  0  0  0  0  0  0  0  0
   19.9430   15.6150    5.9430 C   0  0  0  0  0  0  0  0  0  0  0  0
   20.7610   16.8980    5.6480 N   0  0  0  0  0  4  0  0  0  0  0  0
   22.2130   16.7650    6.0560 C   0  0  0  0  0  0  0  0  0  0  0  0
   22.9660   18.1180    5.9220 C   0  0  0  0  0  0  0  0  0  0  0  0
   22.3600   19.0210    4.8710 N   0  0  0  0  0  4  0  0  0  0  0  0
   21.7120   18.2980    3.7200 C   0  0  0  0  0  0  0  0  0  0  0  0
   20.5690   17.3640    4.1990 C   0  0  0  0  0  0  0  0  0  0  0  0
   13.4687   12.1014    4.5916 H   0  0  0  0  0  0  0  0  0  0  0  0
   12.4453   13.0926    3.4477 H   0  0  0  0  0  0  0  0  0  0  0  0
   12.6875   14.5975    5.1448 H   0  0  0  0  0  0  0  0  0  0  0  0
   14.3225   13.9632    5.6110 H   0  0  0  0  0  0  0  0  0  0  0  0
   13.6812   15.6154    3.1320 H   0  0  0  0  0  0  0  0  0  0  0  0
   14.4882   16.1982    4.6520 H   0  0  0  0  0  0  0  0  0  0  0  0
   15.8108   15.4106    2.4511 H   0  0  0  0  0  0  0  0  0  0  0  0
   16.5204   13.2110    2.3748 H   0  0  0  0  0  0  0  0  0  0  0  0
   16.1455   12.9262    4.1253 H   0  0  0  0  0  0  0  0  0  0  0  0
   14.0901   13.2902    1.9046 H   0  0  0  0  0  0  0  0  0  0  0  0
   14.5986   11.7183    2.6520 H   0  0  0  0  0  0  0  0  0  0  0  0
   19.9188   15.4545    7.0310 H   0  0  0  0  0  0  0  0  0  0  0  0
   20.4326   14.7793    5.4215 H   0  0  0  0  0  0  0  0  0  0  0  0
   20.3850   17.6497    6.2434 H   0  0  0  0  0  0  0  0  0  0  0  0
   22.2614   16.4306    7.1028 H   0  0  0  0  0  0  0  0  0  0  0  0
   22.6941   16.0336    5.3899 H   0  0  0  0  0  0  0  0  0  0  0  0
   22.9344   18.6360    6.8919 H   0  0  0  0  0  0  0  0  0  0  0  0
   23.9981   17.8950    5.6137 H   0  0  0  0  0  0  0  0  0  0  0  0
   21.6453   19.6075    5.3250 H   0  0  0  0  0  0  0  0  0  0  0  0
   23.1373   19.5665    4.4721 H   0  0  0  0  0  0  0  0  0  0  0  0
   21.2972   19.0396    3.0214 H   0  0  0  0  0  0  0  0  0  0  0  0
   22.4776   17.6790    3.2293 H   0  0  0  0  0  0  0  0  0  0  0  0
   19.6153   17.9074    4.1264 H   0  0  0  0  0  0  0  0  0  0  0  0
   20.5750   16.4711    3.5566 H   0  0  0  0  0  0  0  0  0  0  0  0
  2  1  1  0
  3  2  1  0
  4  3  2  0
  5  4  1  0
  5  1  2  0
  7  6  1  0
  8  7  1  0
  9  8  1  0
  9  1  1  0
 10  9  1  0
 11 10  1  0
 11  6  1  0
 12  4  1  0
 13 12  1  0
 14 13  1  0
 15 14  1  0
 16 15  1  0
 17 16  1  0
 18 17  1  0
 18 13  1  0
  6 19  1  0
  6 20  1  0
  7 21  1  0
  7 22  1  0
  8 23  1  0
  8 24  1  0
  9 25  1  0
 10 26  1  0
 10 27  1  0
 11 28  1  0
 11 29  1  0
 12 30  1  0
 12 31  1  0
 13 32  1  0
 14 33  1  0
 14 34  1  0
 15 35  1  0
 15 36  1  0
 16 37  1  0
 16 38  1  0
 17 39  1  0
 17 40  1  0
 18 41  1  0
 18 42  1  0
M  CHG  2  13   1  16   1
M  END
$$$$
=
     RDKit          3D

 16 16  0  0  0  0  0  0  0  0999 V2000
   16.8800   14.0430    3.5270 C   0  0  0  0  0  0  0  0  0  0  0  0
   15.8810   14.8850    4.0260 C   0  0  0  0  0  0  0  0  0  0  0  0
   14.5390   14.4940    3.9740 C   0  0  0  0  0  0  0  0  0  0  0  0
   14.1790   13.2440    3.4640 C   0  0  0  0  0  0  0  0  0  0  0  0
   15.1720   12.4310    2.9100 C   0  0  0  0  0  0  0  0  0  0  0  0
   16.5150   12.8210    2.9600 C   0  0  0  0  0  0  0  0  0  0  0  0
   12.8290   12.9140    3.3070 N   0  0  0  0  0  0  0  0  0  0  0  0
   19.3690   14.7770    3.5930 N   0  0  0  0  0  0  0  0  0  0  0  0
   18.2500   14.4630    3.5880 C   0  0  0  0  0  0  0  0  0  0  0  0
   17.4800   12.0030    2.4400 O   0  0  0  0  0  0  0  0  0  0  0  0
   16.1516   15.8584    4.4610 H   0  0  0  0  0  0  0  0  0  0  0  0
   13.7585   15.1781    4.3386 H   0  0  0  0  0  0  0  0  0  0  0  0
   14.8962   11.4794    2.4321 H   0  0  0  0  0  0  0  0  0  0  0  0
   12.5645   11.9923    2.9310 H   0  0  0  0  0  0  0  0  0  0  0  0
   12.0993   13.5927    3.5674 H   0  0  0  0  0  0  0  0  0  0  0  0
   18.4311   12.2759    2.4737 H   0  0  0  0  0  0  0  0  0  0  0  0
  2  1  2  0
  3  2  1  0
  4  3  2  0
  5  4  1  0
  6  5  2  0
  6  1  1  0
  7  4  1  0
  9  8  3  0
  9  1  1  0
 10  6  1  0
  2 11  1  0
  3 12  1  0
  5 13  1  0
  7 14  1  0
  7 15  1  0
 10 16  1  0
M  END
$$$$
=
     RDKit          3D

 46 48  0  0  0  0  0  0  0  0999 V2000
   16.3320   15.8110    5.9840 N   0  0  0  0  0  4  0  0  0  0  0  0
   17.7930   15.8380    5.6000 C   0  0  2  0  0  0  0  0  0  0  0  0
   18.5680   15.0760    6.6760 C   0  0  0  0  0  0  0  0  0  0  0  0
   20.0430   14.9840    6.2910 C   0  0  0  0  0  0  0  0  0  0  0  0
   20.6190   16.3090    5.8630 C   0  0  0  0  0  0  0  0  0  0  0  0
   19.8010   17.3790    5.4550 C   0  0  0  0  0  0  0  0  0  0  0  0
   18.2980   17.2830    5.4950 C   0  0  0  0  0  0  0  0  0  0  0  0
   20.3940   18.5840    5.0480 C   0  0  0  0  0  0  0  0  0  0  0  0
   21.7820   18.7180    5.0210 C   0  0  0  0  0  0  0  0  0  0  0  0
   22.5900   17.6540    5.4040 C   0  0  0  0  0  0  0  0  0  0  0  0
   22.0130   16.4540    5.8200 C   0  0  0  0  0  0  0  0  0  0  0  0
   15.3380   16.1530    4.9170 C   0  0  0  0  0  0  0  0  0  0  0  0
   12.8600   13.5440    3.6670 C   0  0  0  0  0  0  0  0  0  0  0  0
   13.3920   14.6900    4.2640 C   0  0  0  0  0  0  0  0  0  0  0  0
   14.7700   14.9430    4.2390 C   0  0  0  0  0  0  0  0  0  0  0  0
   15.6060   14.0220    3.5970 C   0  0  0  0  0  0  0  0  0  0  0  0
   15.0830   12.8710    2.9970 C   0  0  0  0  0  0  0  0  0  0  0  0
   13.7080   12.6320    3.0350 C   0  0  0  0  0  0  0  0  0  0  0  0
   10.8650   14.2620    4.7530 C   0  0  0  0  0  0  0  0  0  0  0  0
   11.5010   13.4360    3.7840 O   0  0  0  0  0  0  0  0  0  0  0  0
   16.0260   12.0660    2.4210 O   0  0  0  0  0  0  0  0  0  0  0  0
   17.3870   12.3130    2.7550 C   0  0  0  0  0  0  0  0  0  0  0  0
   16.1161   14.8600    6.3154 H   0  0  0  0  0  0  0  0  0  0  0  0
   16.2292   16.5532    6.6907 H   0  0  0  0  0  0  0  0  0  0  0  0
   17.9380   15.3672    4.6165 H   0  0  0  0  0  0  0  0  0  0  0  0
   18.4744   15.6051    7.6358 H   0  0  0  0  0  0  0  0  0  0  0  0
   18.1548   14.0607    6.7678 H   0  0  0  0  0  0  0  0  0  0  0  0
   20.6106   14.6181    7.1593 H   0  0  0  0  0  0  0  0  0  0  0  0
   20.1194   14.2978    5.4347 H   0  0  0  0  0  0  0  0  0  0  0  0
   17.8934   17.7299    4.5749 H   0  0  0  0  0  0  0  0  0  0  0  0
   17.9576   17.8171    6.3944 H   0  0  0  0  0  0  0  0  0  0  0  0
   19.7586   19.4302    4.7477 H   0  0  0  0  0  0  0  0  0  0  0  0
   22.2371   19.6655    4.6967 H   0  0  0  0  0  0  0  0  0  0  0  0
   23.6848   17.7582    5.3791 H   0  0  0  0  0  0  0  0  0  0  0  0
   22.6576   15.6136    6.1171 H   0  0  0  0  0  0  0  0  0  0  0  0
   14.5129   16.7187    5.3744 H   0  0  0  0  0  0  0  0  0  0  0  0
   15.8646   16.7429    4.1524 H   0  0  0  0  0  0  0  0  0  0  0  0
   12.7190   15.4042    4.7610 H   0  0  0  0  0  0  0  0  0  0  0  0
   16.6900   14.2057    3.5636 H   0  0  0  0  0  0  0  0  0  0  0  0
   13.2932   11.7266    2.5678 H   0  0  0  0  0  0  0  0  0  0  0  0
   11.1319   13.9153    5.7622 H   0  0  0  0  0  0  0  0  0  0  0  0
   11.1974   15.3025    4.6228 H   0  0  0  0  0  0  0  0  0  0  0  0
    9.7741   14.2066    4.6228 H   0  0  0  0  0  0  0  0  0  0  0  0
   17.4982   12.3332    3.8492 H   0  0  0  0  0  0  0  0  0  0  0  0
   18.0178   11.5147    2.3370 H   0  0  0  0  0  0  0  0  0  0  0  0
   17.6971   13.2821    2.3370 H   0  0  0  0  0  0  0  0  0  0  0  0
  2  1  1  0
  3  2  1  0
  4  3  1  0
  5  4  1  0
  6  5  2  0
  7  2  1  0
  7  6  1  0
  8  6  1  0
  9  8  2  0
 10  9  1  0
 11  5  1  0
 11 10  2  0
 12  1  1  0
 14 13  2  0
 15 14  1  0
 15 12  1  0
 16 15  2  0
 17 16  1  0
 18 17  2  0
 18 13  1  0
 20 19  1  0
 20 13  1  0
 21 17  1  0
 22 21  1  0
  1 23  1  0
  1 24  1  0
  2 25  1  6
  3 26  1  0
  3 27  1  0
  4 28  1  0
  4 29  1  0
  7 30  1  0
  7 31  1  0
  8 32  1  0
  9 33  1  0
 10 34  1  0
 11 35  1  0
 12 36  1  0
 12 37  1  0
 14 38  1  0
 16 39  1  0
 18 40  1  0
 19 41  1  0
 19 42  1  0
 19 43  1  0
 22 44  1  0
 22 45  1  0
 22 46  1  0
M  CHG  1   1   1
M  END
$$$$
=
     RDKit          3D

 19 19  0  0  0  0  0  0  0  0999 V2000
   20.1400   15.3590    4.7740 C   0  0  1  0  0  0  0  0  0  0  0  0
   21.6790   15.4960    4.7420 C   0  0  0  0  0  0  0  0  0  0  0  0
   21.5320   16.4440    5.9690 C   0  0  2  0  0  0  0  0  0  0  0  0
   20.1000   16.7530    5.4350 C   0  0  0  0  0  0  0  0  0  0  0  0
   22.4680   17.6400    6.0020 C   0  0  0  0  0  0  0  0  0  0  0  0
   19.5160   15.3170    3.4460 N   0  0  0  0  0  4  0  0  0  0  0  0
   21.5370   15.7680    7.2400 O   0  0  0  0  0  0  0  0  0  0  0  0
   19.6460   14.4856    5.2247 H   0  0  0  0  0  0  0  0  0  0  0  0
   22.2295   14.5648    4.9415 H   0  0  0  0  0  0  0  0  0  0  0  0
   22.2207   15.7959    3.8328 H   0  0  0  0  0  0  0  0  0  0  0  0
   20.0420   17.5961    4.7309 H   0  0  0  0  0  0  0  0  0  0  0  0
   19.2810   17.0607    6.1018 H   0  0  0  0  0  0  0  0  0  0  0  0
   22.6800   17.9109    7.0468 H   0  0  0  0  0  0  0  0  0  0  0  0
   23.4082   17.3840    5.4915 H   0  0  0  0  0  0  0  0  0  0  0  0
   21.9936   18.4911    5.4915 H   0  0  0  0  0  0  0  0  0  0  0  0
   18.4935   15.2482    3.5491 H   0  0  0  0  0  0  0  0  0  0  0  0
   19.7519   16.1758    2.9285 H   0  0  0  0  0  0  0  0  0  0  0  0
   19.8648   14.4976    2.9285 H   0  0  0  0  0  0  0  0  0  0  0  0
   21.5321   16.4371    7.9697 H   0  0  0  0  0  0  0  0  0  0  0  0
  2  1  1  0
  3  2  1  0
  4  1  1  0
  4  3  1  0
  5  3  1  0
  6  1  1  0
  3  7  1  1
  1  8  1  1
  2  9  1  0
  2 10  1  0
  4 11  1  0
  4 12  1  0
  5 13  1  0
  5 14  1  0
  5 15  1  0
  6 16  1  0
  6 17  1  0
  6 18  1  0
  7 19  1  0
M  CHG  1   6   1
M  END
$$$$
=
     RDKit          3D

 40 40  0  0  0  0  0  0  0  0999 V2000
   17.4000   16.3980    4.3840 N   0  0  0  0  0  4  0  0  0  0  0  0
   16.1620   16.0510    5.1560 C   0  0  2  0  0  0  0  0  0  0  0  0
   16.5300   15.7360    6.6060 C   0  0  0  0  0  0  0  0  0  0  0  0
   11.8390   13.6730    4.1450 C   0  0  0  0  0  0  0  0  0  0  0  0
   13.3230   13.7950    3.9530 C   0  0  0  0  0  0  0  0  0  0  0  0
   13.9910   12.9530    3.0600 C   0  0  0  0  0  0  0  0  0  0  0  0
   15.3620   13.0860    2.8570 C   0  0  0  0  0  0  0  0  0  0  0  0
   16.0810   14.0700    3.5370 C   0  0  0  0  0  0  0  0  0  0  0  0
   15.4370   14.9320    4.4380 C   0  0  0  0  0  0  0  0  0  0  0  0
   14.0480   14.7900    4.6230 C   0  0  0  0  0  0  0  0  0  0  0  0
   18.4430   17.2080    5.0880 C   0  0  0  0  0  0  0  0  0  0  0  0
   19.8040   17.2140    4.3430 C   0  0  0  0  0  0  0  0  0  0  0  0
   20.8040   18.1620    5.0200 C   0  0  0  0  0  0  0  0  0  0  0  0
   19.5510   17.6760    2.8990 C   0  0  0  0  0  0  0  0  0  0  0  0
   20.3710   15.7930    4.3580 C   0  0  0  0  0  0  0  0  0  0  0  0
   19.8380   14.8960    3.7030 O   0  0  0  0  0  0  0  0  0  0  0  0
   21.4120   15.5290    5.1830 N   0  0  0  0  0  0  0  0  0  0  0  0
   17.8401   15.5140    4.0913 H   0  0  0  0  0  0  0  0  0  0  0  0
   17.0723   16.9997    3.6149 H   0  0  0  0  0  0  0  0  0  0  0  0
   15.4635   16.8994    5.2041 H   0  0  0  0  0  0  0  0  0  0  0  0
   15.8710   16.3001    7.2824 H   0  0  0  0  0  0  0  0  0  0  0  0
   16.4079   14.6583    6.7895 H   0  0  0  0  0  0  0  0  0  0  0  0
   17.5759   16.0229    6.7895 H   0  0  0  0  0  0  0  0  0  0  0  0
   11.6088   13.6541    5.2205 H   0  0  0  0  0  0  0  0  0  0  0  0
   11.3369   14.5329    3.6776 H   0  0  0  0  0  0  0  0  0  0  0  0
   11.4841   12.7426    3.6776 H   0  0  0  0  0  0  0  0  0  0  0  0
   13.4301   12.1802    2.5139 H   0  0  0  0  0  0  0  0  0  0  0  0
   15.8803   12.4130    2.1581 H   0  0  0  0  0  0  0  0  0  0  0  0
   17.1628   14.1709    3.3651 H   0  0  0  0  0  0  0  0  0  0  0  0
   13.5221   15.4730    5.3063 H   0  0  0  0  0  0  0  0  0  0  0  0
   18.0846   18.2445    5.1735 H   0  0  0  0  0  0  0  0  0  0  0  0
   18.6076   16.7504    6.0747 H   0  0  0  0  0  0  0  0  0  0  0  0
   20.7109   18.0738    6.1125 H   0  0  0  0  0  0  0  0  0  0  0  0
   21.8267   17.8939    4.7163 H   0  0  0  0  0  0  0  0  0  0  0  0
   20.5909   19.1975    4.7163 H   0  0  0  0  0  0  0  0  0  0  0  0
   19.0227   18.6408    2.9099 H   0  0  0  0  0  0  0  0  0  0  0  0
   20.5124   17.7903    2.3768 H   0  0  0  0  0  0  0  0  0  0  0  0
   18.9369   16.9275    2.3768 H   0  0  0  0  0  0  0  0  0  0  0  0
   21.8158   14.5820    5.2158 H   0  0  0  0  0  0  0  0  0  0  0  0
   21.7999   16.2752    5.7777 H   0  0  0  0  0  0  0  0  0  0  0  0
  2  1  1  0
  3  2  1  0
  5  4  1  0
  6  5  2  0
  7  6  1  0
  8  7  2  0
  9  8  1  0
  9  2  1  0
 10  9  2  0
 10  5  1  0
 11  1  1  0
 12 11  1  0
 13 12  1  0
 14 12  1  0
 15 12  1  0
 16 15  2  0
 17 15  1  0
  1 18  1  0
  1 19  1  0
  2 20  1  1
  3 21  1  0
  3 22  1  0
  3 23  1  0
  4 24  1  0
  4 25  1  0
  4 26  1  0
  6 27  1  0
  7 28  1  0
  8 29  1  0
 10 30  1  0
 11 31  1  0
 11 32  1  0
 13 33  1  0
 13 34  1  0
 13 35  1  0
 14 36  1  0
 14 37  1  0
 14 38  1  0
 17 39  1  0
 17 40  1  0
M  CHG  1   1   1
M  END
$$$$
=
     RDKit          3D

 34 34  0  0  0  0  0  0  0  0999 V2000
   17.5490   15.7850    3.6510 C   0  0  0  0  0  0  0  0  0  0  0  0
   16.2370   15.0580    3.8180 C   0  0  0  0  0  0  0  0  0  0  0  0
   15.2240   15.6020    4.6160 C   0  0  0  0  0  0  0  0  0  0  0  0
   14.0040   14.9410    4.7480 C   0  0  0  0  0  0  0  0  0  0  0  0
   13.7950   13.7240    4.0980 C   0  0  0  0  0  0  0  0  0  0  0  0
   14.8130   13.1330    3.3450 C   0  0  0  0  0  0  0  0  0  0  0  0
   16.0110   13.8330    3.1690 C   0  0  0  0  0  0  0  0  0  0  0  0
   14.5580   11.9740    2.6020 N   0  0  0  0  0  0  0  0  0  0  0  0
   18.8720   15.1940    5.6090 N   0  0  0  0  0  0  0  0  0  0  0  0
   18.7290   15.0360    4.2460 C   0  0  0  0  0  0  0  0  0  0  0  0
   19.4630   14.3200    3.5690 O   0  0  0  0  0  0  0  0  0  0  0  0
   20.0440   14.6800    6.2960 C   0  0  0  0  0  0  0  0  0  0  0  0
   21.0860   15.7760    6.5080 C   0  0  0  0  0  0  0  0  0  0  0  0
   21.8680   15.9100    5.3150 O   0  0  0  0  0  0  0  0  0  0  0  0
   20.9110   18.0730    4.7420 C   0  0  0  0  0  0  0  0  0  0  0  0
   22.1720   17.2650    4.9920 C   0  0  0  0  0  0  0  0  0  0  0  0
   17.7335   15.9307    2.5764 H   0  0  0  0  0  0  0  0  0  0  0  0
   17.4637   16.7405    4.1893 H   0  0  0  0  0  0  0  0  0  0  0  0
   15.3912   16.5542    5.1407 H   0  0  0  0  0  0  0  0  0  0  0  0
   13.2055   15.3789    5.3649 H   0  0  0  0  0  0  0  0  0  0  0  0
   12.8183   13.2245    4.1793 H   0  0  0  0  0  0  0  0  0  0  0  0
   16.7889   13.4174    2.5116 H   0  0  0  0  0  0  0  0  0  0  0  0
   15.3109   11.5412    2.0482 H   0  0  0  0  0  0  0  0  0  0  0  0
   13.6175   11.5541    2.6092 H   0  0  0  0  0  0  0  0  0  0  0  0
   18.1400   15.6816    6.1451 H   0  0  0  0  0  0  0  0  0  0  0  0
   19.7396   14.2805    7.2746 H   0  0  0  0  0  0  0  0  0  0  0  0
   20.4919   13.8894    5.6760 H   0  0  0  0  0  0  0  0  0  0  0  0
   20.5809   16.7283    6.7273 H   0  0  0  0  0  0  0  0  0  0  0  0
   21.7382   15.5116    7.3534 H   0  0  0  0  0  0  0  0  0  0  0  0
   20.4627   18.3602    5.7046 H   0  0  0  0  0  0  0  0  0  0  0  0
   21.1629   18.9783    4.1702 H   0  0  0  0  0  0  0  0  0  0  0  0
   20.1938   17.4658    4.1702 H   0  0  0  0  0  0  0  0  0  0  0  0
   22.7953   17.2854    4.0859 H   0  0  0  0  0  0  0  0  0  0  0  0
   22.7055   17.7119    5.8439 H   0  0  0  0  0  0  0  0  0  0  0  0
  2  1  1  0
  3  2  2  0
  4  3  1  0
  5  4  2  0
  6  5  1  0
  7  6  2  0
  7  2  1  0
  8  6  1  0
 10  1  1  0
 10  9  1  0
 11 10  2  0
 12  9  1  0
 13 12  1  0
 14 13  1  0
 16 15  1  0
 16 14  1  0
  1 17  1  0
  1 18  1  0
  3 19  1  0
  4 20  1  0
  5 21  1  0
  7 22  1  0
  8 23  1  0
  8 24  1  0
  9 25  1  0
 12 26  1  0
 12 27  1  0
 13 28  1  0
 13 29  1  0
 15 30  1  0
 15 31  1  0
 15 32  1  0
 16 33  1  0
 16 34  1  0
M  END
$$$$
=
     RDKit          3D

 35 36  0  0  0  0  0  0  0  0999 V2000
   18.5550   15.0980    4.9950 C   0  0  1  0  0  0  0  0  0  0  0  0
   18.8620   14.3560    3.6960 C   0  0  0  0  0  0  0  0  0  0  0  0
   19.8000   15.5990    5.6320 C   0  0  0  0  0  0  0  0  0  0  0  0
   20.3090   15.1070    6.7440 N   0  0  0  0  0  0  0  0  0  0  0  0
   21.4640   15.7900    7.0190 N   0  0  0  0  0  0  0  0  0  0  0  0
   21.6420   16.6920    6.0780 C   0  0  0  0  0  0  0  0  0  0  0  0
   20.6040   16.6130    5.1580 N   0  0  0  0  0  0  0  0  0  0  0  0
   20.5120   17.4340    4.0340 C   0  0  0  0  0  0  0  0  0  0  0  0
   21.4690   18.3540    3.8220 C   0  0  0  0  0  0  0  0  0  0  0  0
   22.5690   18.4660    4.7700 C   0  0  0  0  0  0  0  0  0  0  0  0
   22.6510   17.6670    5.8520 C   0  0  0  0  0  0  0  0  0  0  0  0
   17.6570   16.2670    4.6370 N   0  0  0  0  0  4  0  0  0  0  0  0
   16.2570   16.2300    5.1890 C   0  0  2  0  0  0  0  0  0  0  0  0
   16.2850   15.6070    6.5810 C   0  0  0  0  0  0  0  0  0  0  0  0
   14.1830   14.7230    4.8410 C   0  0  0  0  0  0  0  0  0  0  0  0
   15.3480   15.4710    4.2090 C   0  0  0  0  0  0  0  0  0  0  0  0
   18.0679   14.4204    5.7116 H   0  0  0  0  0  0  0  0  0  0  0  0
   19.2730   13.3627    3.9294 H   0  0  0  0  0  0  0  0  0  0  0  0
   17.9372   14.2420    3.1115 H   0  0  0  0  0  0  0  0  0  0  0  0
   19.5970   14.9288    3.1115 H   0  0  0  0  0  0  0  0  0  0  0  0
   19.6706   17.3304    3.3330 H   0  0  0  0  0  0  0  0  0  0  0  0
   21.4219   19.0141    2.9433 H   0  0  0  0  0  0  0  0  0  0  0  0
   23.3510   19.2204    4.5988 H   0  0  0  0  0  0  0  0  0  0  0  0
   23.4916   17.7685    6.5542 H   0  0  0  0  0  0  0  0  0  0  0  0
   18.1077   17.1259    4.9835 H   0  0  0  0  0  0  0  0  0  0  0  0
   17.5485   16.2249    3.6136 H   0  0  0  0  0  0  0  0  0  0  0  0
   15.8444   17.2442    5.2949 H   0  0  0  0  0  0  0  0  0  0  0  0
   16.2492   16.4027    7.3396 H   0  0  0  0  0  0  0  0  0  0  0  0
   15.4157   14.9442    6.7036 H   0  0  0  0  0  0  0  0  0  0  0  0
   17.2102   15.0248    6.7036 H   0  0  0  0  0  0  0  0  0  0  0  0
   14.2647   14.7755    5.9367 H   0  0  0  0  0  0  0  0  0  0  0  0
   13.2359   15.1822    4.5215 H   0  0  0  0  0  0  0  0  0  0  0  0
   14.2064   13.6707    4.5215 H   0  0  0  0  0  0  0  0  0  0  0  0
   15.9675   14.7396    3.6693 H   0  0  0  0  0  0  0  0  0  0  0  0
   14.8985   16.2365    3.5595 H   0  0  0  0  0  0  0  0  0  0  0  0
  2  1  1  0
  3  1  1  0
  4  3  2  0
  5  4  1  0
  6  5  2  0
  7  3  1  0
  7  6  1  0
  8  7  1  0
  9  8  2  0
 10  9  1  0
 11  6  1  0
 11 10  2  0
 12  1  1  0
 13 12  1  0
 14 13  1  0
 16 15  1  0
 16 13  1  0
  1 17  1  1
  2 18  1  0
  2 19  1  0
  2 20  1  0
  8 21  1  0
  9 22  1  0
 10 23  1  0
 11 24  1  0
 12 25  1  0
 12 26  1  0
 13 27  1  1
 14 28  1  0
 14 29  1  0
 14 30  1  0
 15 31  1  0
 15 32  1  0
 15 33  1  0
 16 34  1  0
 16 35  1  0
M  CHG  1  12   1
M  END
$$$$
=
     RDKit          3D

 37 38  0  0  0  0  0  0  0  0999 V2000
   17.9550   15.1260    4.9950 C   0  0  0  0  0  0  0  0  0  0  0  0
   17.1700   16.1090    5.6090 C   0  0  0  0  0  0  0  0  0  0  0  0
   15.8520   16.2810    5.2090 C   0  0  0  0  0  0  0  0  0  0  0  0
   15.3190   15.4560    4.2180 C   0  0  0  0  0  0  0  0  0  0  0  0
   16.0720   14.4150    3.6500 C   0  0  0  0  0  0  0  0  0  0  0  0
   17.4250   14.2630    4.0130 C   0  0  0  0  0  0  0  0  0  0  0  0
   18.2810   13.2140    3.3530 C   0  0  0  0  0  0  0  0  0  0  0  0
   19.5960   14.4000    6.4550 O   0  0  0  0  0  0  0  0  0  0  0  0
   19.3620   15.0380    5.4320 C   0  0  0  0  0  0  0  0  0  0  0  0
   20.3400   15.6900    4.6730 N   0  0  0  0  0  0  0  0  0  0  0  0
   20.0490   16.6230    3.5870 C   0  0  0  0  0  0  0  0  0  0  0  0
   20.1690   18.0850    4.0180 C   0  0  0  0  0  0  0  0  0  0  0  0
   21.6210   18.5190    4.2110 C   0  0  0  0  0  0  0  0  0  0  0  0
   22.2420   18.1790    5.5660 C   0  0  0  0  0  0  0  0  0  0  0  0
   21.9330   16.8140    6.1830 C   0  0  0  0  0  0  0  0  0  0  0  0
   21.7080   15.6800    5.1870 C   0  0  0  0  0  0  0  0  0  0  0  0
   15.5110   13.6980    2.5780 N   0  0  0  0  0  0  0  0  0  0  0  0
   17.5947   16.7408    6.4030 H   0  0  0  0  0  0  0  0  0  0  0  0
   15.2314   17.0631    5.6706 H   0  0  0  0  0  0  0  0  0  0  0  0
   14.2877   15.6243    3.8743 H   0  0  0  0  0  0  0  0  0  0  0  0
   18.7767   12.6066    4.1246 H   0  0  0  0  0  0  0  0  0  0  0  0
   17.6499   12.5668    2.7262 H   0  0  0  0  0  0  0  0  0  0  0  0
   19.0416   13.7025    2.7262 H   0  0  0  0  0  0  0  0  0  0  0  0
   20.7570   16.4389    2.7655 H   0  0  0  0  0  0  0  0  0  0  0  0
   19.0086   16.4533    3.2726 H   0  0  0  0  0  0  0  0  0  0  0  0
   19.7105   18.7196    3.2453 H   0  0  0  0  0  0  0  0  0  0  0  0
   19.6560   18.1923    4.9851 H   0  0  0  0  0  0  0  0  0  0  0  0
   22.2253   18.0326    3.4311 H   0  0  0  0  0  0  0  0  0  0  0  0
   21.6151   19.6174    4.1520 H   0  0  0  0  0  0  0  0  0  0  0  0
   23.3339   18.2441    5.4494 H   0  0  0  0  0  0  0  0  0  0  0  0
   21.7881   18.9004    6.2614 H   0  0  0  0  0  0  0  0  0  0  0  0
   22.7781   16.5349    6.8295 H   0  0  0  0  0  0  0  0  0  0  0  0
   20.9828   16.9346    6.7239 H   0  0  0  0  0  0  0  0  0  0  0  0
   21.8954   14.7194    5.6891 H   0  0  0  0  0  0  0  0  0  0  0  0
   22.3981   15.8177    4.3416 H   0  0  0  0  0  0  0  0  0  0  0  0
   16.0386   12.9291    2.1405 H   0  0  0  0  0  0  0  0  0  0  0  0
   14.5726   13.9417    2.2304 H   0  0  0  0  0  0  0  0  0  0  0  0
  2  1  2  0
  3  2  1  0
  4  3  2  0
  5  4  1  0
  6  5  2  0
  6  1  1  0
  7  6  1  0
  9  1  1  0
  9  8  2  0
 10  9  1  0
 11 10  1  0
 12 11  1  0
 13 12  1  0
 14 13  1  0
 15 14  1  0
 16 10  1  0
 16 15  1  0
 17  5  1  0
  2 18  1  0
  3 19  1  0
  4 20  1  0
  7 21  1  0
  7 22  1  0
  7 23  1  0
 11 24  1  0
 11 25  1  0
 12 26  1  0
 12 27  1  0
 13 28  1  0
 13 29  1  0
 14 30  1  0
 14 31  1  0
 15 32  1  0
 15 33  1  0
 16 34  1  0
 16 35  1  0
 17 36  1  0
 17 37  1  0
M  END
$$$$
=
     RDKit          3D

 33 35  0  0  0  0  0  0  0  0999 V2000
   18.8040   15.3110    4.1050 C   0  0  0  0  0  0  0  0  0  0  0  0
   19.2310   16.3840    3.3220 C   0  0  0  0  0  0  0  0  0  0  0  0
   20.4190   17.0670    3.6220 C   0  0  0  0  0  0  0  0  0  0  0  0
   21.1280   16.7650    4.8050 C   0  0  0  0  0  0  0  0  0  0  0  0
   20.6820   15.7010    5.6200 C   0  0  0  0  0  0  0  0  0  0  0  0
   19.5560   14.9600    5.2300 C   0  0  0  0  0  0  0  0  0  0  0  0
   22.3810   17.5210    5.1720 C   0  0  0  0  0  0  0  0  0  0  0  0
   14.1900   13.7520    3.7050 C   0  0  0  0  0  0  0  0  0  0  0  0
   13.9080   12.5960    3.1130 N   0  0  0  0  0  0  0  0  0  0  0  0
   15.1000   12.0100    2.6920 N   0  0  0  0  0  0  0  0  0  0  0  0
   16.0390   12.8370    3.0500 C   0  0  0  0  0  0  0  0  0  0  0  0
   15.5460   13.9270    3.6740 N   0  0  0  0  0  0  0  0  0  0  0  0
   16.3800   14.9030    4.1130 N   0  0  0  0  0  0  0  0  0  0  0  0
   17.5900   14.5110    3.7960 C   0  0  0  0  0  0  0  0  0  0  0  0
   17.7370   12.9390    2.9470 S   0  0  0  0  0  0  0  0  0  0  0  0
   11.8200   14.2610    4.3210 C   0  0  0  0  0  0  0  0  0  0  0  0
   13.2640   14.7380    4.3150 C   0  0  0  0  0  0  0  0  0  0  0  0
   20.7380   18.1680    2.8010 N   0  0  0  0  0  0  0  0  0  0  0  0
   21.4470   15.2120    6.6930 N   0  0  0  0  0  0  0  0  0  0  0  0
   18.6278   16.6987    2.4576 H   0  0  0  0  0  0  0  0  0  0  0  0
   19.2582   14.0828    5.8231 H   0  0  0  0  0  0  0  0  0  0  0  0
   22.4695   17.5744    6.2671 H   0  0  0  0  0  0  0  0  0  0  0  0
   23.2575   17.0009    4.7582 H   0  0  0  0  0  0  0  0  0  0  0  0
   22.3295   18.5389    4.7582 H   0  0  0  0  0  0  0  0  0  0  0  0
   11.4757   14.1473    5.3595 H   0  0  0  0  0  0  0  0  0  0  0  0
   11.1882   14.9982    3.8039 H   0  0  0  0  0  0  0  0  0  0  0  0
   11.7516   13.2925    3.8039 H   0  0  0  0  0  0  0  0  0  0  0  0
   13.3224   15.6761    3.7435 H   0  0  0  0  0  0  0  0  0  0  0  0
   13.5716   14.8796    5.3616 H   0  0  0  0  0  0  0  0  0  0  0  0
   21.5982   18.7074    2.9742 H   0  0  0  0  0  0  0  0  0  0  0  0
   20.1108   18.4329    2.0281 H   0  0  0  0  0  0  0  0  0  0  0  0
   21.0910   14.4344    7.2670 H   0  0  0  0  0  0  0  0  0  0  0  0
   22.3635   15.6313    6.9053 H   0  0  0  0  0  0  0  0  0  0  0  0
  2  1  2  0
  3  2  1  0
  4  3  2  0
  5  4  1  0
  6  1  1  0
  6  5  2  0
  7  4  1  0
  9  8  2  0
 10  9  1  0
 11 10  2  0
 12 11  1  0
 12  8  1  0
 13 12  1  0
 14 13  2  0
 14  1  1  0
 15 11  1  0
 15 14  1  0
 17 16  1  0
 17  8  1  0
 18  3  1  0
 19  5  1  0
  2 20  1  0
  6 21  1  0
  7 22  1  0
  7 23  1  0
  7 24  1  0
 16 25  1  0
 16 26  1  0
 16 27  1  0
 17 28  1  0
 17 29  1  0
 18 30  1  0
 18 31  1  0
 19 32  1  0
 19 33  1  0
M  END
$$$$
=
     RDKit          3D

 30 30  0  0  0  0  0  0  0  0999 V2000
   19.0880   16.0610    4.3270 C   0  0  1  0  0  0  0  0  0  0  0  0
   19.3360   17.2810    3.4120 C   0  0  0  0  0  0  0  0  0  0  0  0
   17.6140   15.6520    4.3000 C   0  0  0  0  0  0  0  0  0  0  0  0
   17.1390   14.5210    3.6090 C   0  0  0  0  0  0  0  0  0  0  0  0
   15.7790   14.1880    3.6230 C   0  0  0  0  0  0  0  0  0  0  0  0
   14.8670   14.9680    4.3300 C   0  0  0  0  0  0  0  0  0  0  0  0
   15.3120   16.0800    5.0320 C   0  0  0  0  0  0  0  0  0  0  0  0
   16.6660   16.4060    5.0140 C   0  0  0  0  0  0  0  0  0  0  0  0
   17.0650   17.4700    5.7240 F   0  0  0  0  0  0  0  0  0  0  0  0
   19.9980   14.9900    3.7510 N   0  0  0  0  0  4  0  0  0  0  0  0
   19.5700   16.3820    5.7620 C   0  0  0  0  0  0  0  0  0  0  0  0
   20.7890   15.5700    6.1060 C   0  0  0  0  0  0  0  0  0  0  0  0
   20.7150   14.5690    6.8150 O   0  0  0  0  0  0  0  0  0  0  0  0
   22.2620   17.3840    5.9260 C   0  0  0  0  0  0  0  0  0  0  0  0
   21.8980   16.0620    5.5150 O   0  0  0  0  0  0  0  0  0  0  0  0
   19.5172   18.1724    4.0305 H   0  0  0  0  0  0  0  0  0  0  0  0
   20.2138   17.0907    2.7770 H   0  0  0  0  0  0  0  0  0  0  0  0
   18.4535   17.4485    2.7770 H   0  0  0  0  0  0  0  0  0  0  0  0
   17.8461   13.8902    3.0504 H   0  0  0  0  0  0  0  0  0  0  0  0
   15.4281   13.3034    3.0713 H   0  0  0  0  0  0  0  0  0  0  0  0
   13.7991   14.7042    4.3321 H   0  0  0  0  0  0  0  0  0  0  0  0
   14.6005   16.6990    5.5982 H   0  0  0  0  0  0  0  0  0  0  0  0
   20.4422   14.4673    4.5194 H   0  0  0  0  0  0  0  0  0  0  0  0
   19.4436   14.3437    3.1715 H   0  0  0  0  0  0  0  0  0  0  0  0
   20.7254   15.4328    3.1715 H   0  0  0  0  0  0  0  0  0  0  0  0
   19.8175   17.4517    5.8293 H   0  0  0  0  0  0  0  0  0  0  0  0
   18.7662   16.1318    6.4700 H   0  0  0  0  0  0  0  0  0  0  0  0
   22.2762   17.4355    7.0247 H   0  0  0  0  0  0  0  0  0  0  0  0
   23.2607   17.6277    5.5346 H   0  0  0  0  0  0  0  0  0  0  0  0
   21.5288   18.1046    5.5346 H   0  0  0  0  0  0  0  0  0  0  0  0
  1  2  1  6
  3  1  1  0
  4  3  2  0
  5  4  1  0
  6  5  2  0
  7  6  1  0
  8  7  2  0
  8  3  1  0
  9  8  1  0
 10  1  1  0
 11  1  1  0
 12 11  1  0
 13 12  2  0
 15 12  1  0
 15 14  1  0
  2 16  1  0
  2 17  1  0
  2 18  1  0
  4 19  1  0
  5 20  1  0
  6 21  1  0
  7 22  1  0
 10 23  1  0
 10 24  1  0
 10 25  1  0
 11 26  1  0
 11 27  1  0
 14 28  1  0
 14 29  1  0
 14 30  1  0
M  CHG  1  10   1
M  END
$$$$
=
     RDKit          3D

 54 57  0  0  0  0  0  0  0  0999 V2000
   26.8580   25.0900   12.8170 C   0  0  0  0  0  0  0  0  0  0  0  0
   24.3860   25.4740   13.9670 O   0  0  0  0  0  0  0  0  0  0  0  0
   24.3730   25.1650   12.7790 C   0  0  0  0  0  0  0  0  0  0  0  0
   25.5530   24.7980   12.1650 N   0  0  0  0  0  0  0  0  0  0  0  0
   23.1280   25.1670   11.9840 C   0  0  0  0  0  0  0  0  0  0  0  0
   22.4540   26.3720   11.7670 C   0  0  0  0  0  0  0  0  0  0  0  0
   21.2790   26.3730   11.0170 C   0  0  0  0  0  0  0  0  0  0  0  0
   20.8180   25.1670   10.5150 C   0  0  0  0  0  0  0  0  0  0  0  0
   21.4410   23.9860   10.7210 N   0  0  0  0  0  0  0  0  0  0  0  0
   22.5730   24.0080   11.4580 C   0  0  0  0  0  0  0  0  0  0  0  0
   28.0800   24.9950   11.8530 C   0  0  0  0  0  0  0  0  0  0  0  0
   27.9610   23.9320   11.0260 F   0  0  0  0  0  0  0  0  0  0  0  0
   29.2440   24.8680   12.5140 F   0  0  0  0  0  0  0  0  0  0  0  0
   28.1430   26.0860   11.0600 F   0  0  0  0  0  0  0  0  0  0  0  0
   27.2010   24.0700   13.9360 C   0  0  0  0  0  0  0  0  0  0  0  0
   26.5580   22.8990   13.7810 F   0  0  0  0  0  0  0  0  0  0  0  0
   28.5280   23.8400   14.0050 F   0  0  0  0  0  0  0  0  0  0  0  0
   26.8270   24.5690   15.1420 F   0  0  0  0  0  0  0  0  0  0  0  0
   26.7620   26.5470   13.3810 N   0  0  0  0  0  4  0  0  0  0  0  0
   27.9450   27.4370   13.2070 C   0  0  0  0  0  0  0  0  0  0  0  0
   28.6110   27.8020   14.5510 C   0  0  2  0  0  0  0  0  0  0  0  0
   29.0190   29.2970   14.6200 C   0  0  0  0  0  0  0  0  0  0  0  0
   29.6110   29.6400   15.9990 C   0  0  2  0  0  0  0  0  0  0  0  0
   30.8510   28.7660   16.2480 C   0  0  0  0  0  0  0  0  0  0  0  0
   30.4630   27.2780   16.2140 C   0  0  2  0  0  0  0  0  0  0  0  0
   29.8690   26.9400   14.8340 C   0  0  0  0  0  0  0  0  0  0  0  0
   29.4140   27.0050   17.3020 C   0  0  0  0  0  0  0  0  0  0  0  0
   28.1690   27.8720   17.0610 C   0  0  2  0  0  0  0  0  0  0  0  0
   27.5800   27.5350   15.6820 C   0  0  0  0  0  0  0  0  0  0  0  0
   28.5650   29.3560   17.0890 C   0  0  0  0  0  0  0  0  0  0  0  0
   25.5303   24.3205   11.2526 H   0  0  0  0  0  0  0  0  0  0  0  0
   22.8471   27.3109   12.1842 H   0  0  0  0  0  0  0  0  0  0  0  0
   20.7314   27.3082   10.8285 H   0  0  0  0  0  0  0  0  0  0  0  0
   19.8951   25.1711    9.9165 H   0  0  0  0  0  0  0  0  0  0  0  0
   23.0841   23.0535   11.6524 H   0  0  0  0  0  0  0  0  0  0  0  0
   25.9629   27.0037   12.9187 H   0  0  0  0  0  0  0  0  0  0  0  0
   26.6749   26.4263   14.4002 H   0  0  0  0  0  0  0  0  0  0  0  0
   28.6839   26.9226   12.5750 H   0  0  0  0  0  0  0  0  0  0  0  0
   27.5961   28.3707   12.7416 H   0  0  0  0  0  0  0  0  0  0  0  0
   29.7712   29.5016   13.8438 H   0  0  0  0  0  0  0  0  0  0  0  0
   28.1231   29.9144   14.4579 H   0  0  0  0  0  0  0  0  0  0  0  0
   29.8925   30.7030   16.0259 H   0  0  0  0  0  0  0  0  0  0  0  0
   31.5994   28.9650   15.4668 H   0  0  0  0  0  0  0  0  0  0  0  0
   31.2693   29.0070   17.2364 H   0  0  0  0  0  0  0  0  0  0  0  0
   31.3527   26.6568   16.3944 H   0  0  0  0  0  0  0  0  0  0  0  0
   30.6235   27.1372   14.0583 H   0  0  0  0  0  0  0  0  0  0  0  0
   29.5793   25.8789   14.8246 H   0  0  0  0  0  0  0  0  0  0  0  0
   29.1290   25.9429   17.2749 H   0  0  0  0  0  0  0  0  0  0  0  0
   29.8410   27.2518   18.2852 H   0  0  0  0  0  0  0  0  0  0  0  0
   27.4244   27.6738   17.8460 H   0  0  0  0  0  0  0  0  0  0  0  0
   26.6895   28.1575   15.5102 H   0  0  0  0  0  0  0  0  0  0  0  0
   27.3152   26.4674   15.6675 H   0  0  0  0  0  0  0  0  0  0  0  0
   28.9889   29.6017   18.0739 H   0  0  0  0  0  0  0  0  0  0  0  0
   27.6728   29.9721   16.9035 H   0  0  0  0  0  0  0  0  0  0  0  0
  3  2  2  0
  4  3  1  0
  4  1  1  0
  5  3  1  0
  6  5  2  0
  7  6  1  0
  8  7  2  0
  9  8  1  0
 10  9  2  0
 10  5  1  0
 11  1  1  0
 12 11  1  0
 13 11  1  0
 14 11  1  0
 15  1  1  0
 16 15  1  0
 17 15  1  0
 18 15  1  0
 19  1  1  0
 20 19  1  0
 21 20  1  6
 22 21  1  0
 23 22  1  0
 24 23  1  0
 25 24  1  0
 26 25  1  0
 26 21  1  0
 27 25  1  0
 28 27  1  0
 29 21  1  0
 29 28  1  0
 30 23  1  0
 30 28  1  0
  4 31  1  0
  6 32  1  0
  7 33  1  0
  8 34  1  0
 10 35  1  0
 19 36  1  0
 19 37  1  0
 20 38  1  0
 20 39  1  0
 22 40  1  0
 22 41  1  0
 23 42  1  6
 24 43  1  0
 24 44  1  0
 25 45  1  1
 26 46  1  0
 26 47  1  0
 27 48  1  0
 27 49  1  0
 28 50  1  1
 29 51  1  0
 29 52  1  0
 30 53  1  0
 30 54  1  0
M  CHG  1  19   1
M  END
$$$$
=
     RDKit          3D

 34 35  0  0  0  0  0  0  0  0999 V2000
    8.3040   13.8590    4.2650 C   0  0  0  0  0  0  0  0  0  0  0  0
    7.6570   12.5170    3.8370 C   0  0  0  0  0  0  0  0  0  0  0  0
    8.4670   11.9100    2.7960 O   0  0  0  0  0  0  0  0  0  0  0  0
    9.7140   12.4580    3.0060 C   0  0  0  0  0  0  0  0  0  0  0  0
    9.7030   13.5650    3.8420 C   0  0  0  0  0  0  0  0  0  0  0  0
   10.8800   14.2360    4.1420 C   0  0  0  0  0  0  0  0  0  0  0  0
   12.0840   13.7690    3.5970 C   0  0  0  0  0  0  0  0  0  0  0  0
   12.0720   12.6430    2.7510 C   0  0  0  0  0  0  0  0  0  0  0  0
   10.8750   11.9990    2.4040 C   0  0  0  0  0  0  0  0  0  0  0  0
   13.2560   14.4700    3.9560 N   0  0  0  0  0  0  0  0  0  0  0  0
   14.5390   13.9660    4.0670 C   0  0  0  0  0  0  0  0  0  0  0  0
   14.9080   12.8230    3.8240 O   0  0  0  0  0  0  0  0  0  0  0  0
   15.5290   15.0190    4.5000 C   0  0  0  0  0  0  0  0  0  0  0  0
   10.8860   10.8110    1.6640 N   0  0  0  0  0  0  0  0  0  0  0  0
    6.4470   14.9680    3.1600 C   0  0  0  0  0  0  0  0  0  0  0  0
    7.7820   15.0320    3.6370 O   0  0  0  0  0  0  0  0  0  0  0  0
    8.3000   14.0170    5.6890 O   0  0  0  0  0  0  0  0  0  0  0  0
    8.3240   12.7830    6.3900 C   0  0  0  0  0  0  0  0  0  0  0  0
    7.6033   11.8411    4.7032 H   0  0  0  0  0  0  0  0  0  0  0  0
    6.6411   12.6998    3.4569 H   0  0  0  0  0  0  0  0  0  0  0  0
   10.8683   15.1198    4.7967 H   0  0  0  0  0  0  0  0  0  0  0  0
   13.0232   12.2597    2.3532 H   0  0  0  0  0  0  0  0  0  0  0  0
   13.1421   15.4734    4.1588 H   0  0  0  0  0  0  0  0  0  0  0  0
   15.5657   15.0581    5.5987 H   0  0  0  0  0  0  0  0  0  0  0  0
   16.5259   14.7681    4.1085 H   0  0  0  0  0  0  0  0  0  0  0  0
   15.2172   15.9985    4.1085 H   0  0  0  0  0  0  0  0  0  0  0  0
   11.7589   10.4864    1.2241 H   0  0  0  0  0  0  0  0  0  0  0  0
   10.0212   10.2614    1.5594 H   0  0  0  0  0  0  0  0  0  0  0  0
    5.7539   14.9348    4.0135 H   0  0  0  0  0  0  0  0  0  0  0  0
    6.2332   15.8569    2.5484 H   0  0  0  0  0  0  0  0  0  0  0  0
    6.3192   14.0627    2.5484 H   0  0  0  0  0  0  0  0  0  0  0  0
    8.3202   12.9763    7.4729 H   0  0  0  0  0  0  0  0  0  0  0  0
    7.4372   12.1907    6.1202 H   0  0  0  0  0  0  0  0  0  0  0  0
    9.2332   12.2256    6.1202 H   0  0  0  0  0  0  0  0  0  0  0  0
  2  1  1  0
  3  2  1  0
  4  3  1  0
  5  4  2  0
  5  1  1  0
  6  5  1  0
  7  6  2  0
  8  7  1  0
  9  4  1  0
  9  8  2  0
 10  7  1  0
 11 10  1  0
 12 11  2  0
 13 11  1  0
 14  9  1  0
 16 15  1  0
 16  1  1  0
 17  1  1  0
 18 17  1  0
  2 19  1  0
  2 20  1  0
  6 21  1  0
  8 22  1  0
 10 23  1  0
 13 24  1  0
 13 25  1  0
 13 26  1  0
 14 27  1  0
 14 28  1  0
 15 29  1  0
 15 30  1  0
 15 31  1  0
 18 32  1  0
 18 33  1  0
 18 34  1  0
M  END
$$$$
=
     RDKit          3D

 32 34  0  0  0  0  0  0  0  0999 V2000
   19.0450   16.8260    4.5840 N   0  0  0  0  0  4  0  0  0  0  0  0
   20.0610   16.2250    5.5730 C   0  0  0  0  0  0  0  0  0  0  0  0
   21.3410   16.9090    5.1540 C   0  0  1  0  0  0  0  0  0  0  0  0
   20.8610   18.3040    4.7930 C   0  0  2  0  0  0  0  0  0  0  0  0
   19.7250   18.0000    3.8480 C   0  0  0  0  0  0  0  0  0  0  0  0
   22.1460   18.9790    4.3780 C   0  0  0  0  0  0  0  0  0  0  0  0
   23.1240   18.4190    5.4130 N   0  0  0  0  0  4  0  0  0  0  0  0
   22.4850   17.2070    6.0930 C   0  0  0  0  0  0  0  0  0  0  0  0
   18.3780   15.8160    3.6670 C   0  0  0  0  0  0  0  0  0  0  0  0
   15.0740   15.2450    5.4180 C   0  0  0  0  0  0  0  0  0  0  0  0
   14.8080   14.3680    4.3920 C   0  0  0  0  0  0  0  0  0  0  0  0
   16.0960   14.2840    3.2740 S   0  0  0  0  0  0  0  0  0  0  0  0
   17.0270   15.4220    4.1610 C   0  0  0  0  0  0  0  0  0  0  0  0
   16.3550   15.8570    5.2860 C   0  0  0  0  0  0  0  0  0  0  0  0
   18.2404   17.1848    5.1177 H   0  0  0  0  0  0  0  0  0  0  0  0
   19.7991   16.4678    6.6134 H   0  0  0  0  0  0  0  0  0  0  0  0
   20.1131   15.1266    5.5459 H   0  0  0  0  0  0  0  0  0  0  0  0
   21.7781   16.1945    4.4410 H   0  0  0  0  0  0  0  0  0  0  0  0
   20.4194   19.0213    5.5004 H   0  0  0  0  0  0  0  0  0  0  0  0
   19.0461   18.8589    3.7412 H   0  0  0  0  0  0  0  0  0  0  0  0
   20.0370   17.7730    2.8179 H   0  0  0  0  0  0  0  0  0  0  0  0
   22.4369   18.6978    3.3551 H   0  0  0  0  0  0  0  0  0  0  0  0
   22.0921   20.0775    4.3560 H   0  0  0  0  0  0  0  0  0  0  0  0
   23.9962   18.1333    4.9455 H   0  0  0  0  0  0  0  0  0  0  0  0
   23.3394   19.1404    6.1159 H   0  0  0  0  0  0  0  0  0  0  0  0
   22.1235   17.4555    7.1018 H   0  0  0  0  0  0  0  0  0  0  0  0
   23.1729   16.3625    6.2468 H   0  0  0  0  0  0  0  0  0  0  0  0
   18.2750   16.2590    2.6654 H   0  0  0  0  0  0  0  0  0  0  0  0
   19.0068   14.9139    3.6394 H   0  0  0  0  0  0  0  0  0  0  0  0
   14.3785   15.4504    6.2450 H   0  0  0  0  0  0  0  0  0  0  0  0
   13.8765   13.7897    4.3025 H   0  0  0  0  0  0  0  0  0  0  0  0
   16.7609   16.5907    5.9980 H   0  0  0  0  0  0  0  0  0  0  0  0
  2  1  1  0
  3  2  1  0
  4  3  1  0
  5  4  1  0
  5  1  1  0
  6  4  1  0
  7  6  1  0
  8  3  1  0
  8  7  1  0
  9  1  1  0
 11 10  2  0
 12 11  1  0
 13 12  1  0
 13  9  1  0
 14 10  1  0
 14 13  2  0
  1 15  1  0
  2 16  1  0
  2 17  1  0
  3 18  1  6
  4 19  1  1
  5 20  1  0
  5 21  1  0
  6 22  1  0
  6 23  1  0
  7 24  1  0
  7 25  1  0
  8 26  1  0
  8 27  1  0
  9 28  1  0
  9 29  1  0
 10 30  1  0
 11 31  1  0
 14 32  1  0
M  CHG  2   1   1   7   1
M  END
$$$$
=
     RDKit          3D

 42 43  0  0  0  0  0  0  0  0999 V2000
   18.3430   15.3370    4.2500 C   0  0  2  0  0  0  0  0  0  0  0  0
   17.3180   15.8270    5.3000 C   0  0  0  0  0  0  0  0  0  0  0  0
   17.5260   17.3130    5.6200 C   0  0  0  0  0  0  0  0  0  0  0  0
   18.9980   17.7400    5.5510 C   0  0  0  0  0  0  0  0  0  0  0  0
   19.7120   16.9270    4.4750 C   0  0  1  0  0  0  0  0  0  0  0  0
   19.7990   15.4210    4.8270 C   0  0  0  0  0  0  0  0  0  0  0  0
   18.8250   16.4760    3.2760 C   0  0  0  0  0  0  0  0  0  0  0  0
   21.0070   17.4970    4.0860 N   0  0  0  0  0  4  0  0  0  0  0  0
   17.9430   14.0390    3.5550 C   0  0  0  0  0  0  0  0  0  0  0  0
   16.3380   12.0000    2.3690 O   0  0  0  0  0  0  0  0  0  0  0  0
   15.8360   13.0530    2.7300 C   0  0  0  0  0  0  0  0  0  0  0  0
   16.5150   14.0500    3.3660 N   0  0  0  0  0  0  0  0  0  0  0  0
   14.5470   13.4240    2.5930 O   0  0  0  0  0  0  0  0  0  0  0  0
   13.5410   12.9900    3.5450 C   0  0  0  0  0  0  0  0  0  0  0  0
   12.2720   12.7780    2.7050 C   0  0  0  0  0  0  0  0  0  0  0  0
   13.9270   11.6560    4.1930 C   0  0  0  0  0  0  0  0  0  0  0  0
   13.2610   14.0750    4.5900 C   0  0  0  0  0  0  0  0  0  0  0  0
   16.3016   15.6830    4.9049 H   0  0  0  0  0  0  0  0  0  0  0  0
   17.4582   15.2467    6.2239 H   0  0  0  0  0  0  0  0  0  0  0  0
   16.9531   17.9111    4.8961 H   0  0  0  0  0  0  0  0  0  0  0  0
   17.1830   17.4788    6.6519 H   0  0  0  0  0  0  0  0  0  0  0  0
   19.0584   18.8100    5.3030 H   0  0  0  0  0  0  0  0  0  0  0  0
   19.4780   17.5623    6.5247 H   0  0  0  0  0  0  0  0  0  0  0  0
   19.8904   15.1962    5.8999 H   0  0  0  0  0  0  0  0  0  0  0  0
   20.6176   14.7724    4.4817 H   0  0  0  0  0  0  0  0  0  0  0  0
   19.3757   16.1323    2.3880 H   0  0  0  0  0  0  0  0  0  0  0  0
   18.1340   17.1515    2.7504 H   0  0  0  0  0  0  0  0  0  0  0  0
   21.5456   17.7341    4.9313 H   0  0  0  0  0  0  0  0  0  0  0  0
   21.5310   16.8088    3.5268 H   0  0  0  0  0  0  0  0  0  0  0  0
   20.8534   18.3482    3.5268 H   0  0  0  0  0  0  0  0  0  0  0  0
   18.4470   13.9684    2.5798 H   0  0  0  0  0  0  0  0  0  0  0  0
   18.2381   13.1741    4.1673 H   0  0  0  0  0  0  0  0  0  0  0  0
   15.9798   14.8514    3.7296 H   0  0  0  0  0  0  0  0  0  0  0  0
   11.4100   12.6340    3.3729 H   0  0  0  0  0  0  0  0  0  0  0  0
   12.1008   13.6600    2.0703 H   0  0  0  0  0  0  0  0  0  0  0  0
   12.3968   11.8883    2.0703 H   0  0  0  0  0  0  0  0  0  0  0  0
   13.8975   11.7581    5.2879 H   0  0  0  0  0  0  0  0  0  0  0  0
   13.2175   10.8766    3.8781 H   0  0  0  0  0  0  0  0  0  0  0  0
   14.9431   11.3758    3.8781 H   0  0  0  0  0  0  0  0  0  0  0  0
   13.3707   13.6498    5.5985 H   0  0  0  0  0  0  0  0  0  0  0  0
   13.9753   14.9015    4.4608 H   0  0  0  0  0  0  0  0  0  0  0  0
   12.2360   14.4527    4.4608 H   0  0  0  0  0  0  0  0  0  0  0  0
  2  1  1  0
  3  2  1  0
  4  3  1  0
  5  4  1  0
  6  1  1  0
  6  5  1  0
  7  1  1  0
  7  5  1  0
  5  8  1  6
  1  9  1  6
 11 10  2  0
 12 11  1  0
 12  9  1  0
 13 11  1  0
 14 13  1  0
 15 14  1  0
 16 14  1  0
 17 14  1  0
  2 18  1  0
  2 19  1  0
  3 20  1  0
  3 21  1  0
  4 22  1  0
  4 23  1  0
  6 24  1  0
  6 25  1  0
  7 26  1  0
  7 27  1  0
  8 28  1  0
  8 29  1  0
  8 30  1  0
  9 31  1  0
  9 32  1  0
 12 33  1  0
 15 34  1  0
 15 35  1  0
 15 36  1  0
 16 37  1  0
 16 38  1  0
 16 39  1  0
 17 40  1  0
 17 41  1  0
 17 42  1  0
M  CHG  1   8   1
M  END
$$$$
=
     RDKit          3D

 30 30  0  0  0  0  0  0  0  0999 V2000
   16.9260   15.4100    3.9600 C   0  0  0  0  0  0  0  0  0  0  0  0
   15.6220   14.6500    3.8730 C   0  0  0  0  0  0  0  0  0  0  0  0
   14.4600   15.2560    4.3890 C   0  0  0  0  0  0  0  0  0  0  0  0
   13.2240   14.6140    4.3210 C   0  0  0  0  0  0  0  0  0  0  0  0
   13.1300   13.3550    3.7430 C   0  0  0  0  0  0  0  0  0  0  0  0
   14.2720   12.7340    3.2380 C   0  0  0  0  0  0  0  0  0  0  0  0
   15.5260   13.3660    3.2960 C   0  0  0  0  0  0  0  0  0  0  0  0
   16.7200   12.6250    2.7590 C   0  0  0  0  0  0  0  0  0  0  0  0
   17.4090   15.6240    5.4110 C   0  0  2  0  0  0  0  0  0  0  0  0
   17.3070   17.0800    5.8570 C   0  0  0  0  0  0  0  0  0  0  0  0
   19.5620   15.0280    4.1840 C   0  0  0  0  0  0  0  0  0  0  0  0
   18.8610   15.1870    5.4890 N   0  0  0  0  0  4  0  0  0  0  0  0
   17.6967   14.8457    3.4145 H   0  0  0  0  0  0  0  0  0  0  0  0
   16.7549   16.4045    3.5221 H   0  0  0  0  0  0  0  0  0  0  0  0
   14.5285   16.2511    4.8528 H   0  0  0  0  0  0  0  0  0  0  0  0
   12.3255   15.1039    4.7244 H   0  0  0  0  0  0  0  0  0  0  0  0
   12.1557   12.8479    3.6835 H   0  0  0  0  0  0  0  0  0  0  0  0
   14.1900   11.7339    2.7873 H   0  0  0  0  0  0  0  0  0  0  0  0
   17.3256   12.2492    3.5969 H   0  0  0  0  0  0  0  0  0  0  0  0
   16.3801   11.7789    2.1437 H   0  0  0  0  0  0  0  0  0  0  0  0
   17.3273   13.3051    2.1437 H   0  0  0  0  0  0  0  0  0  0  0  0
   16.7637   15.0336    6.0780 H   0  0  0  0  0  0  0  0  0  0  0  0
   17.3037   17.1275    6.9560 H   0  0  0  0  0  0  0  0  0  0  0  0
   18.1679   17.6437    5.4682 H   0  0  0  0  0  0  0  0  0  0  0  0
   16.3760   17.5182    5.4682 H   0  0  0  0  0  0  0  0  0  0  0  0
   20.6204   14.7879    4.3632 H   0  0  0  0  0  0  0  0  0  0  0  0
   19.0929   14.2134    3.6126 H   0  0  0  0  0  0  0  0  0  0  0  0
   19.4902   15.9652    3.6126 H   0  0  0  0  0  0  0  0  0  0  0  0
   18.8923   14.2804    5.9769 H   0  0  0  0  0  0  0  0  0  0  0  0
   19.3550   15.9452    5.9810 H   0  0  0  0  0  0  0  0  0  0  0  0
  2  1  1  0
  3  2  2  0
  4  3  1  0
  5  4  2  0
  6  5  1  0
  7  6  2  0
  7  2  1  0
  8  7  1  0
  9  1  1  0
 10  9  1  0
 12 11  1  0
 12  9  1  0
  1 13  1  0
  1 14  1  0
  3 15  1  0
  4 16  1  0
  5 17  1  0
  6 18  1  0
  8 19  1  0
  8 20  1  0
  8 21  1  0
  9 22  1  1
 10 23  1  0
 10 24  1  0
 10 25  1  0
 11 26  1  0
 11 27  1  0
 11 28  1  0
 12 29  1  0
 12 30  1  0
M  CHG  1  12   1
M  END
$$$$
=
     RDKit          3D

 41 42  0  0  0  0  0  0  0  0999 V2000
   18.1640   16.1940    3.7460 C   0  0  0  0  0  0  0  0  0  0  0  0
   20.6550   16.0120    6.5520 C   0  0  2  0  0  0  0  0  0  0  0  0
   20.0520   14.6130    6.5550 C   0  0  0  0  0  0  0  0  0  0  0  0
   19.3220   14.4870    5.2260 C   0  0  0  0  0  0  0  0  0  0  0  0
   19.0980   15.8480    4.8090 N   0  0  0  0  0  0  0  0  0  0  0  0
   19.8360   16.7680    5.5190 C   0  0  0  0  0  0  0  0  0  0  0  0
   19.9530   17.9630    5.3110 O   0  0  0  0  0  0  0  0  0  0  0  0
   22.0940   15.9940    6.1520 N   0  0  0  0  0  4  0  0  0  0  0  0
   16.9070   15.3720    3.8410 C   0  0  0  0  0  0  0  0  0  0  0  0
   16.7580   14.2150    3.0710 C   0  0  0  0  0  0  0  0  0  0  0  0
   15.5800   13.4640    3.1380 C   0  0  0  0  0  0  0  0  0  0  0  0
   14.5110   13.8420    3.9720 C   0  0  0  0  0  0  0  0  0  0  0  0
   14.6760   15.0070    4.7370 C   0  0  0  0  0  0  0  0  0  0  0  0
   15.8540   15.7610    4.6740 C   0  0  0  0  0  0  0  0  0  0  0  0
   13.2330   12.9850    4.0240 C   0  0  0  0  0  0  0  0  0  0  0  0
   12.2950   13.5190    5.1290 C   0  0  0  0  0  0  0  0  0  0  0  0
   13.6020   11.5190    4.3380 C   0  0  0  0  0  0  0  0  0  0  0  0
   12.4280   12.9790    2.7050 C   0  0  0  0  0  0  0  0  0  0  0  0
   17.9037   17.2595    3.8291 H   0  0  0  0  0  0  0  0  0  0  0  0
   18.6441   15.9879    2.7780 H   0  0  0  0  0  0  0  0  0  0  0  0
   20.6247   16.4697    7.5518 H   0  0  0  0  0  0  0  0  0  0  0  0
   20.8431   13.8527    6.6335 H   0  0  0  0  0  0  0  0  0  0  0  0
   19.3768   14.4595    7.4097 H   0  0  0  0  0  0  0  0  0  0  0  0
   19.9412   13.9518    4.4911 H   0  0  0  0  0  0  0  0  0  0  0  0
   18.3857   13.9164    5.3146 H   0  0  0  0  0  0  0  0  0  0  0  0
   22.6848   15.9866    6.9957 H   0  0  0  0  0  0  0  0  0  0  0  0
   22.2842   15.1506    5.5922 H   0  0  0  0  0  0  0  0  0  0  0  0
   22.3053   16.8324    5.5922 H   0  0  0  0  0  0  0  0  0  0  0  0
   17.5737   13.8926    2.4071 H   0  0  0  0  0  0  0  0  0  0  0  0
   15.4867   12.5560    2.5241 H   0  0  0  0  0  0  0  0  0  0  0  0
   13.8622   15.3348    5.4005 H   0  0  0  0  0  0  0  0  0  0  0  0
   15.9520   16.6693    5.2866 H   0  0  0  0  0  0  0  0  0  0  0  0
   12.7171   13.2787    6.1160 H   0  0  0  0  0  0  0  0  0  0  0  0
   12.1943   14.6098    5.0290 H   0  0  0  0  0  0  0  0  0  0  0  0
   11.3056   13.0488    5.0290 H   0  0  0  0  0  0  0  0  0  0  0  0
   13.6381   11.3754    5.4280 H   0  0  0  0  0  0  0  0  0  0  0  0
   12.8444   10.8494    3.9049 H   0  0  0  0  0  0  0  0  0  0  0  0
   14.5863   11.2878    3.9049 H   0  0  0  0  0  0  0  0  0  0  0  0
   11.3518   12.9710    2.9323 H   0  0  0  0  0  0  0  0  0  0  0  0
   12.6729   13.8790    2.1219 H   0  0  0  0  0  0  0  0  0  0  0  0
   12.6863   12.0828    2.1219 H   0  0  0  0  0  0  0  0  0  0  0  0
  3  2  1  0
  4  3  1  0
  5  4  1  0
  5  1  1  0
  6  5  1  0
  6  2  1  0
  7  6  2  0
  8  2  1  0
  9  1  1  0
 10  9  2  0
 11 10  1  0
 12 11  2  0
 13 12  1  0
 14 13  2  0
 14  9  1  0
 15 12  1  0
 16 15  1  0
 17 15  1  0
 18 15  1  0
  1 19  1  0
  1 20  1  0
  2 21  1  1
  3 22  1  0
  3 23  1  0
  4 24  1  0
  4 25  1  0
  8 26  1  0
  8 27  1  0
  8 28  1  0
 10 29  1  0
 11 30  1  0
 13 31  1  0
 14 32  1  0
 16 33  1  0
 16 34  1  0
 16 35  1  0
 17 36  1  0
 17 37  1  0
 17 38  1  0
 18 39  1  0
 18 40  1  0
 18 41  1  0
M  CHG  1   8   1
M  END
$$$$
=
     RDKit          3D

 32 32  0  0  0  0  0  0  0  0999 V2000
   19.5510   15.9430    5.5470 C   0  0  0  0  0  0  0  0  0  0  0  0
   18.6200   15.2520    6.5690 C   0  0  0  0  0  0  0  0  0  0  0  0
   17.2170   15.7440    6.2240 C   0  0  0  0  0  0  0  0  0  0  0  0
   17.4040   17.1070    5.5630 C   0  0  0  0  0  0  0  0  0  0  0  0
   18.9120   17.3430    5.4870 C   0  0  0  0  0  0  0  0  0  0  0  0
   19.4710   15.2560    4.1570 C   0  0  0  0  0  0  0  0  0  0  0  0
   19.8470   16.1910    3.0700 N   0  0  0  0  0  4  0  0  0  0  0  0
   21.0060   15.9920    6.0820 C   0  0  1  0  0  0  0  0  0  0  0  0
   21.8060   15.0560    5.3230 O   0  0  0  0  0  0  0  0  0  0  0  0
   21.6930   17.3670    5.9960 C   0  0  0  0  0  0  0  0  0  0  0  0
   22.2900   17.4870    4.6990 O   0  0  0  0  0  0  0  0  0  0  0  0
   22.1710   18.7990    4.1550 C   0  0  0  0  0  0  0  0  0  0  0  0
   18.6812   14.1582    6.4693 H   0  0  0  0  0  0  0  0  0  0  0  0
   18.8972   15.4906    7.6064 H   0  0  0  0  0  0  0  0  0  0  0  0
   16.7264   15.0459    5.5298 H   0  0  0  0  0  0  0  0  0  0  0  0
   16.5809   15.8123    7.1189 H   0  0  0  0  0  0  0  0  0  0  0  0
   16.9675   17.1038    4.5533 H   0  0  0  0  0  0  0  0  0  0  0  0
   16.9032   17.9014    6.1358 H   0  0  0  0  0  0  0  0  0  0  0  0
   19.2485   17.9559    6.3362 H   0  0  0  0  0  0  0  0  0  0  0  0
   19.1951   17.8819    4.5708 H   0  0  0  0  0  0  0  0  0  0  0  0
   20.1567   14.3960    4.1427 H   0  0  0  0  0  0  0  0  0  0  0  0
   18.4336   14.9304    3.9906 H   0  0  0  0  0  0  0  0  0  0  0  0
   20.1998   17.0683    3.4785 H   0  0  0  0  0  0  0  0  0  0  0  0
   20.5815   15.7634    2.4881 H   0  0  0  0  0  0  0  0  0  0  0  0
   19.0210   16.3910    2.4881 H   0  0  0  0  0  0  0  0  0  0  0  0
   20.9352   15.7442    7.1514 H   0  0  0  0  0  0  0  0  0  0  0  0
   22.3067   14.4701    5.9444 H   0  0  0  0  0  0  0  0  0  0  0  0
   20.9493   18.1648    6.1392 H   0  0  0  0  0  0  0  0  0  0  0  0
   22.4608   17.4586    6.7784 H   0  0  0  0  0  0  0  0  0  0  0  0
   22.1046   19.5307    4.9736 H   0  0  0  0  0  0  0  0  0  0  0  0
   23.0527   19.0205    3.5358 H   0  0  0  0  0  0  0  0  0  0  0  0
   21.2638   18.8583    3.5358 H   0  0  0  0  0  0  0  0  0  0  0  0
  2  1  1  0
  3  2  1  0
  4  3  1  0
  5  1  1  0
  5  4  1  0
  6  1  1  0
  7  6  1  0
  8  1  1  0
  9  8  1  0
 10  8  1  0
 11 10  1  0
 12 11  1  0
  2 13  1  0
  2 14  1  0
  3 15  1  0
  3 16  1  0
  4 17  1  0
  4 18  1  0
  5 19  1  0
  5 20  1  0
  6 21  1  0
  6 22  1  0
  7 23  1  0
  7 24  1  0
  7 25  1  0
  8 26  1  1
  9 27  1  0
 10 28  1  0
 10 29  1  0
 12 30  1  0
 12 31  1  0
 12 32  1  0
M  CHG  1   7   1
M  END
$$$$
=
     RDKit          3D

 43 44  0  0  0  0  0  0  0  0999 V2000
   16.1400   15.0500    3.7550 C   0  0  2  0  0  0  0  0  0  0  0  0
   14.9170   14.9340    4.6850 C   0  0  0  0  0  0  0  0  0  0  0  0
   13.7910   14.1050    4.0480 C   0  0  0  0  0  0  0  0  0  0  0  0
   14.2760   12.7210    3.6110 C   0  0  2  0  0  0  0  0  0  0  0  0
   15.4920   12.8350    2.6860 C   0  0  0  0  0  0  0  0  0  0  0  0
   16.6220   13.6490    3.3370 C   0  0  0  0  0  0  0  0  0  0  0  0
   13.1800   12.0080    2.9050 N   0  0  0  0  0  4  0  0  0  0  0  0
   16.7460   16.8560    5.4980 C   0  0  0  0  0  0  0  0  0  0  0  0
   17.2240   15.8920    4.4330 N   0  0  1  0  0  4  0  0  0  0  0  0
   18.4970   15.0930    4.8000 C   0  0  0  0  0  0  0  0  0  0  0  0
   18.8140   15.1680    6.2980 C   0  0  0  0  0  0  0  0  0  0  0  0
   20.2510   14.7310    6.5650 C   0  0  0  0  0  0  0  0  0  0  0  0
   21.2670   15.6360    5.8660 C   0  0  0  0  0  0  0  0  0  0  0  0
   20.7160   16.3370    4.6230 C   0  0  0  0  0  0  0  0  0  0  0  0
   19.6800   15.4860    3.8950 C   0  0  0  0  0  0  0  0  0  0  0  0
   15.8673   15.5720    2.8259 H   0  0  0  0  0  0  0  0  0  0  0  0
   15.2278   14.4507    5.6230 H   0  0  0  0  0  0  0  0  0  0  0  0
   14.5318   15.9475    4.8706 H   0  0  0  0  0  0  0  0  0  0  0  0
   12.9812   13.9822    4.7823 H   0  0  0  0  0  0  0  0  0  0  0  0
   13.4389   14.6400    3.1537 H   0  0  0  0  0  0  0  0  0  0  0  0
   14.5709   12.1568    4.5080 H   0  0  0  0  0  0  0  0  0  0  0  0
   15.8642   11.8251    2.4591 H   0  0  0  0  0  0  0  0  0  0  0  0
   15.1790   13.3531    1.7675 H   0  0  0  0  0  0  0  0  0  0  0  0
   16.9802   13.1135    4.2286 H   0  0  0  0  0  0  0  0  0  0  0  0
   17.4302   13.7678    2.6003 H   0  0  0  0  0  0  0  0  0  0  0  0
   12.5400   11.5917    3.5964 H   0  0  0  0  0  0  0  0  0  0  0  0
   12.6615   12.6740    2.3146 H   0  0  0  0  0  0  0  0  0  0  0  0
   13.5787   11.2641    2.3146 H   0  0  0  0  0  0  0  0  0  0  0  0
   16.9543   16.4359    6.4930 H   0  0  0  0  0  0  0  0  0  0  0  0
   17.2728   17.8153    5.3874 H   0  0  0  0  0  0  0  0  0  0  0  0
   15.6635   17.0173    5.3874 H   0  0  0  0  0  0  0  0  0  0  0  0
   17.5251   16.5356    3.6873 H   0  0  0  0  0  0  0  0  0  0  0  0
   18.3000   14.0290    4.6023 H   0  0  0  0  0  0  0  0  0  0  0  0
   18.6807   16.2035    6.6444 H   0  0  0  0  0  0  0  0  0  0  0  0
   18.1323   14.4952    6.8390 H   0  0  0  0  0  0  0  0  0  0  0  0
   20.4355   14.7617    7.6490 H   0  0  0  0  0  0  0  0  0  0  0  0
   20.3747   13.7127    6.1677 H   0  0  0  0  0  0  0  0  0  0  0  0
   21.5962   16.4048    6.5806 H   0  0  0  0  0  0  0  0  0  0  0  0
   22.0932   14.9917    5.5310 H   0  0  0  0  0  0  0  0  0  0  0  0
   20.2459   17.2833    4.9288 H   0  0  0  0  0  0  0  0  0  0  0  0
   21.5550   16.5121    3.9335 H   0  0  0  0  0  0  0  0  0  0  0  0
   19.2938   16.0572    3.0380 H   0  0  0  0  0  0  0  0  0  0  0  0
   20.1764   14.5587    3.5729 H   0  0  0  0  0  0  0  0  0  0  0  0
  2  1  1  0
  3  2  1  0
  4  3  1  0
  5  4  1  0
  6  5  1  0
  6  1  1  0
  7  4  1  0
  9  1  1  0
  9  8  1  0
 10  9  1  0
 11 10  1  0
 12 11  1  0
 13 12  1  0
 14 13  1  0
 15 14  1  0
 15 10  1  0
  1 16  1  6
  2 17  1  0
  2 18  1  0
  3 19  1  0
  3 20  1  0
  4 21  1  1
  5 22  1  0
  5 23  1  0
  6 24  1  0
  6 25  1  0
  7 26  1  0
  7 27  1  0
  7 28  1  0
  8 29  1  0
  8 30  1  0
  8 31  1  0
  9 32  1  6
 10 33  1  0
 11 34  1  0
 11 35  1  0
 12 36  1  0
 12 37  1  0
 13 38  1  0
 13 39  1  0
 14 40  1  0
 14 41  1  0
 15 42  1  0
 15 43  1  0
M  CHG  2   7   1   9   1
M  END
$$$$
=
     RDKit          3D

 47 49  0  0  0  0  0  0  0  0999 V2000
   23.6850   26.1910   15.9410 C   0  0  0  0  0  0  0  0  0  0  0  0
   24.1110   27.0140   16.9580 C   0  0  0  0  0  0  0  0  0  0  0  0
   25.3220   27.6000   16.9870 N   0  0  0  0  0  0  0  0  0  0  0  0
   26.1470   27.3980   15.9530 C   0  0  0  0  0  0  0  0  0  0  0  0
   25.7820   26.6370   14.9050 N   0  0  0  0  0  0  0  0  0  0  0  0
   24.5600   26.0470   14.8780 C   0  0  0  0  0  0  0  0  0  0  0  0
   27.4000   27.9610   15.9710 N   0  0  0  0  0  0  0  0  0  0  0  0
   28.1900   28.0080   14.7460 C   0  0  0  0  0  0  0  0  0  0  0  0
   28.9300   29.3400   14.6350 C   0  0  0  0  0  0  0  0  0  0  0  0
   29.8250   29.6110   15.8430 C   0  0  0  0  0  0  0  0  0  0  0  0
   29.2910   28.9890   17.1320 C   0  0  0  0  0  0  0  0  0  0  0  0
   27.7750   28.8040   17.1010 C   0  0  0  0  0  0  0  0  0  0  0  0
   24.3240   25.2740   13.5950 C   0  0  0  0  0  0  0  0  0  0  0  0
   25.3670   24.1520   13.3890 C   0  0  0  0  0  0  0  0  0  0  0  0
   25.5690   23.7410   11.9450 C   0  0  0  0  0  0  0  0  0  0  0  0
   25.6230   24.9600   11.1020 N   0  0  0  0  0  4  0  0  0  0  0  0
   24.3190   25.6660   11.0540 C   0  0  0  0  0  0  0  0  0  0  0  0
   24.0150   26.2330   12.4250 C   0  0  0  0  0  0  0  0  0  0  0  0
   21.5100   25.9660   17.7120 C   0  0  0  0  0  0  0  0  0  0  0  0
   22.0950   25.4600   16.1130 S   0  0  0  0  0  6  0  0  0  0  0  0
   21.2580   26.0560   15.0950 O   0  0  0  0  0  0  0  0  0  0  0  0
   22.2370   24.0100   16.1540 O   0  0  0  0  0  0  0  0  0  0  0  0
   23.4226   27.2037   17.7948 H   0  0  0  0  0  0  0  0  0  0  0  0
   28.9223   27.1872   14.7562 H   0  0  0  0  0  0  0  0  0  0  0  0
   27.5147   27.9042   13.8839 H   0  0  0  0  0  0  0  0  0  0  0  0
   29.5543   29.3230   13.7295 H   0  0  0  0  0  0  0  0  0  0  0  0
   28.1762   30.1399   14.5897 H   0  0  0  0  0  0  0  0  0  0  0  0
   30.8230   29.1953   15.6403 H   0  0  0  0  0  0  0  0  0  0  0  0
   29.8568   30.7005   15.9915 H   0  0  0  0  0  0  0  0  0  0  0  0
   29.7646   28.0063   17.2733 H   0  0  0  0  0  0  0  0  0  0  0  0
   29.5300   29.6726   17.9600 H   0  0  0  0  0  0  0  0  0  0  0  0
   27.2898   29.7861   17.0001 H   0  0  0  0  0  0  0  0  0  0  0  0
   27.4500   28.3226   18.0351 H   0  0  0  0  0  0  0  0  0  0  0  0
   23.4002   24.6804   13.6608 H   0  0  0  0  0  0  0  0  0  0  0  0
   26.3316   24.5024   13.7849 H   0  0  0  0  0  0  0  0  0  0  0  0
   24.9827   23.2663   13.9161 H   0  0  0  0  0  0  0  0  0  0  0  0
   26.5120   23.1830   11.8483 H   0  0  0  0  0  0  0  0  0  0  0  0
   24.7366   23.0995   11.6200 H   0  0  0  0  0  0  0  0  0  0  0  0
   26.3323   25.5992   11.4881 H   0  0  0  0  0  0  0  0  0  0  0  0
   25.8617   24.6709   10.1427 H   0  0  0  0  0  0  0  0  0  0  0  0
   24.3689   26.4834   10.3196 H   0  0  0  0  0  0  0  0  0  0  0  0
   23.5263   24.9631   10.7582 H   0  0  0  0  0  0  0  0  0  0  0  0
   24.6144   27.1453   12.5606 H   0  0  0  0  0  0  0  0  0  0  0  0
   22.9319   26.4232   12.4528 H   0  0  0  0  0  0  0  0  0  0  0  0
   22.0954   25.4597   18.4937 H   0  0  0  0  0  0  0  0  0  0  0  0
   21.6237   27.0551   17.8163 H   0  0  0  0  0  0  0  0  0  0  0  0
   20.4486   25.6965   17.8163 H   0  0  0  0  0  0  0  0  0  0  0  0
  2  1  2  0
  3  2  1  0
  4  3  2  0
  5  4  1  0
  6  5  2  0
  6  1  1  0
  7  4  1  0
  8  7  1  0
  9  8  1  0
 10  9  1  0
 11 10  1  0
 12  7  1  0
 12 11  1  0
 13  6  1  0
 14 13  1  0
 15 14  1  0
 16 15  1  0
 17 16  1  0
 18 17  1  0
 18 13  1  0
 20 19  1  0
 20  1  1  0
 21 20  2  0
 22 20  2  0
  2 23  1  0
  8 24  1  0
  8 25  1  0
  9 26  1  0
  9 27  1  0
 10 28  1  0
 10 29  1  0
 11 30  1  0
 11 31  1  0
 12 32  1  0
 12 33  1  0
 13 34  1  0
 14 35  1  0
 14 36  1  0
 15 37  1  0
 15 38  1  0
 16 39  1  0
 16 40  1  0
 17 41  1  0
 17 42  1  0
 18 43  1  0
 18 44  1  0
 19 45  1  0
 19 46  1  0
 19 47  1  0
M  CHG  1  16   1
M  END
$$$$
=
     RDKit          3D

 39 42  0  0  0  0  0  0  0  0999 V2000
   17.7740   16.0610    5.3630 C   0  0  2  0  0  0  0  0  0  0  0  0
   18.8230   15.2680    6.1650 C   0  0  0  0  0  0  0  0  0  0  0  0
   20.2400   15.7090    5.7480 C   0  0  1  0  0  0  0  0  0  0  0  0
   20.4400   15.4370    4.2480 C   0  0  0  0  0  0  0  0  0  0  0  0
   19.4040   16.2250    3.4280 C   0  0  1  0  0  0  0  0  0  0  0  0
   17.9920   15.7890    3.8520 C   0  0  0  0  0  0  0  0  0  0  0  0
   19.5710   17.7270    3.7030 C   0  0  0  0  0  0  0  0  0  0  0  0
   19.3650   18.0130    5.1980 C   0  0  1  0  0  0  0  0  0  0  0  0
   17.9470   17.5730    5.6140 C   0  0  0  0  0  0  0  0  0  0  0  0
   20.4010   17.2170    6.0140 C   0  0  0  0  0  0  0  0  0  0  0  0
   16.3690   15.6100    5.6780 N   0  0  0  0  0  4  0  0  0  0  0  0
   15.2280   15.9120    4.7590 C   0  0  0  0  0  0  0  0  0  0  0  0
   14.2190   12.6410    3.1930 C   0  0  0  0  0  0  0  0  0  0  0  0
   12.6360   13.0150    3.7060 S   0  0  0  0  0  0  0  0  0  0  0  0
   13.1530   14.4790    4.4190 C   0  0  0  0  0  0  0  0  0  0  0  0
   14.5080   14.7120    4.2510 C   0  0  0  0  0  0  0  0  0  0  0  0
   15.1220   13.6180    3.5470 C   0  0  0  0  0  0  0  0  0  0  0  0
   18.6823   15.4585    7.2392 H   0  0  0  0  0  0  0  0  0  0  0  0
   18.7014   14.1940    5.9607 H   0  0  0  0  0  0  0  0  0  0  0  0
   20.9861   15.1462    6.3282 H   0  0  0  0  0  0  0  0  0  0  0  0
   21.4525   15.7497    3.9528 H   0  0  0  0  0  0  0  0  0  0  0  0
   20.3108   14.3617    4.0555 H   0  0  0  0  0  0  0  0  0  0  0  0
   19.5519   16.0275    2.3560 H   0  0  0  0  0  0  0  0  0  0  0  0
   17.2483   16.3540    3.2709 H   0  0  0  0  0  0  0  0  0  0  0  0
   17.8793   14.7112    3.6632 H   0  0  0  0  0  0  0  0  0  0  0  0
   20.5831   18.0411    3.4080 H   0  0  0  0  0  0  0  0  0  0  0  0
   18.8229   18.2860    3.1218 H   0  0  0  0  0  0  0  0  0  0  0  0
   19.4881   19.0896    5.3873 H   0  0  0  0  0  0  0  0  0  0  0  0
   17.2042   18.1286    5.0228 H   0  0  0  0  0  0  0  0  0  0  0  0
   17.8012   17.7824    6.6840 H   0  0  0  0  0  0  0  0  0  0  0  0
   20.2502   17.4154    7.0854 H   0  0  0  0  0  0  0  0  0  0  0  0
   21.4121   17.5292    5.7137 H   0  0  0  0  0  0  0  0  0  0  0  0
   16.4061   14.5846    5.7684 H   0  0  0  0  0  0  0  0  0  0  0  0
   16.1375   16.1702    6.5108 H   0  0  0  0  0  0  0  0  0  0  0  0
   14.5069   16.5406    5.3021 H   0  0  0  0  0  0  0  0  0  0  0  0
   15.6596   16.4125    3.8797 H   0  0  0  0  0  0  0  0  0  0  0  0
   14.4870   11.7264    2.6437 H   0  0  0  0  0  0  0  0  0  0  0  0
   12.4804   15.1646    4.9552 H   0  0  0  0  0  0  0  0  0  0  0  0
   16.1964   13.5676    3.3165 H   0  0  0  0  0  0  0  0  0  0  0  0
  2  1  1  0
  3  2  1  0
  4  3  1  0
  5  4  1  0
  6  5  1  0
  6  1  1  0
  7  5  1  0
  8  7  1  0
  9  1  1  0
  9  8  1  0
 10  3  1  0
 10  8  1  0
  1 11  1  1
 12 11  1  0
 14 13  1  0
 15 14  1  0
 16 15  2  0
 16 12  1  0
 17 16  1  0
 17 13  2  0
  2 18  1  0
  2 19  1  0
  3 20  1  1
  4 21  1  0
  4 22  1  0
  5 23  1  6
  6 24  1  0
  6 25  1  0
  7 26  1  0
  7 27  1  0
  8 28  1  6
  9 29  1  0
  9 30  1  0
 10 31  1  0
 10 32  1  0
 11 33  1  0
 11 34  1  0
 12 35  1  0
 12 36  1  0
 13 37  1  0
 15 38  1  0
 17 39  1  0
M  CHG  1  11   1
M  END
$$$$
=
     RDKit          3D

 48 48  0  0  0  0  0  0  0  0999 V2000
   17.4560   15.8840    4.9380 N   0  0  0  0  0  4  0  0  0  0  0  0
   18.2600   15.4070    6.1190 C   0  0  0  0  0  0  0  0  0  0  0  0
   19.5920   14.7640    5.7210 C   0  0  2  0  0  0  0  0  0  0  0  0
   20.7050   15.0270    6.7300 C   0  0  0  0  0  0  0  0  0  0  0  0
   19.5650   14.8800    3.3150 O   0  0  0  0  0  0  0  0  0  0  0  0
   19.9790   15.3320    4.3710 C   0  0  0  0  0  0  0  0  0  0  0  0
   20.8380   16.3660    4.5310 O   0  0  0  0  0  0  0  0  0  0  0  0
   20.4730   17.7150    4.1250 C   0  0  0  0  0  0  0  0  0  0  0  0
   19.5930   17.6950    2.8710 C   0  0  0  0  0  0  0  0  0  0  0  0
   21.8070   18.3950    3.7820 C   0  0  0  0  0  0  0  0  0  0  0  0
   19.8120   18.4770    5.2770 C   0  0  0  0  0  0  0  0  0  0  0  0
   16.0880   16.4090    5.2470 C   0  0  0  0  0  0  0  0  0  0  0  0
   15.0980   15.2600    5.4000 C   0  0  0  0  0  0  0  0  0  0  0  0
   15.0570   14.3340    4.1820 C   0  0  0  0  0  0  0  0  0  0  0  0
   13.6490   13.9000    3.8740 C   0  0  0  0  0  0  0  0  0  0  0  0
   13.4130   12.8370    2.9900 C   0  0  0  0  0  0  0  0  0  0  0  0
   12.1070   12.4480    2.6850 C   0  0  0  0  0  0  0  0  0  0  0  0
   11.0280   13.1180    3.2570 C   0  0  0  0  0  0  0  0  0  0  0  0
   11.2520   14.1780    4.1330 C   0  0  0  0  0  0  0  0  0  0  0  0
   12.5560   14.5700    4.4390 C   0  0  0  0  0  0  0  0  0  0  0  0
   17.9869   16.6376    4.4785 H   0  0  0  0  0  0  0  0  0  0  0  0
   17.3088   15.0532    4.3473 H   0  0  0  0  0  0  0  0  0  0  0  0
   18.4683   16.2681    6.7710 H   0  0  0  0  0  0  0  0  0  0  0  0
   17.6645   14.6364    6.6305 H   0  0  0  0  0  0  0  0  0  0  0  0
   19.4615   13.6723    5.6868 H   0  0  0  0  0  0  0  0  0  0  0  0
   20.3048   14.9324    7.7503 H   0  0  0  0  0  0  0  0  0  0  0  0
   21.5130   14.2950    6.5837 H   0  0  0  0  0  0  0  0  0  0  0  0
   21.0999   16.0432    6.5837 H   0  0  0  0  0  0  0  0  0  0  0  0
   18.5338   17.6709    3.1667 H   0  0  0  0  0  0  0  0  0  0  0  0
   19.7863   18.5978    2.2730 H   0  0  0  0  0  0  0  0  0  0  0  0
   19.8271   16.8019    2.2730 H   0  0  0  0  0  0  0  0  0  0  0  0
   22.3317   18.6625    4.7110 H   0  0  0  0  0  0  0  0  0  0  0  0
   22.4302   17.7046    3.1947 H   0  0  0  0  0  0  0  0  0  0  0  0
   21.6144   19.3049    3.1947 H   0  0  0  0  0  0  0  0  0  0  0  0
   20.1650   18.0701    6.2361 H   0  0  0  0  0  0  0  0  0  0  0  0
   20.0765   19.5427    5.2113 H   0  0  0  0  0  0  0  0  0  0  0  0
   18.7196   18.3656    5.2113 H   0  0  0  0  0  0  0  0  0  0  0  0
   16.1238   16.9834    6.1844 H   0  0  0  0  0  0  0  0  0  0  0  0
   15.7590   17.0546    4.4194 H   0  0  0  0  0  0  0  0  0  0  0  0
   15.3843   14.6667    6.2809 H   0  0  0  0  0  0  0  0  0  0  0  0
   14.0969   15.7029    5.5081 H   0  0  0  0  0  0  0  0  0  0  0  0
   15.4662   14.8679    3.3117 H   0  0  0  0  0  0  0  0  0  0  0  0
   15.6560   13.4388    4.4053 H   0  0  0  0  0  0  0  0  0  0  0  0
   14.2619   12.3064    2.5341 H   0  0  0  0  0  0  0  0  0  0  0  0
   11.9302   11.6118    1.9925 H   0  0  0  0  0  0  0  0  0  0  0  0
    9.9995   12.8103    3.0172 H   0  0  0  0  0  0  0  0  0  0  0  0
   10.3995   14.7069    4.5842 H   0  0  0  0  0  0  0  0  0  0  0  0
   12.7267   15.4103    5.1281 H   0  0  0  0  0  0  0  0  0  0  0  0
  2  1  1  0
  3  2  1  0
  4  3  1  0
  6  5  2  0
  6  3  1  0
  7  6  1  0
  8  7  1  0
  9  8  1  0
 10  8  1  0
 11  8  1  0
 12  1  1  0
 13 12  1  0
 14 13  1  0
 15 14  1  0
 16 15  2  0
 17 16  1  0
 18 17  2  0
 19 18  1  0
 20 19  2  0
 20 15  1  0
  1 21  1  0
  1 22  1  0
  2 23  1  0
  2 24  1  0
  3 25  1  6
  4 26  1  0
  4 27  1  0
  4 28  1  0
  9 29  1  0
  9 30  1  0
  9 31  1  0
 10 32  1  0
 10 33  1  0
 10 34  1  0
 11 35  1  0
 11 36  1  0
 11 37  1  0
 12 38  1  0
 12 39  1  0
 13 40  1  0
 13 41  1  0
 14 42  1  0
 14 43  1  0
 16 44  1  0
 17 45  1  0
 18 46  1  0
 19 47  1  0
 20 48  1  0
M  CHG  1   1   1
M  END
$$$$
=
     RDKit          3D

 29 29  0  0  0  0  0  0  0  0999 V2000
   20.4820   15.7820    4.9360 C   0  0  0  0  0  0  0  0  0  0  0  0
   21.7540   16.2980    5.6200 C   0  0  2  0  0  0  0  0  0  0  0  0
   21.8660   15.7170    6.9210 O   0  0  0  0  0  0  0  0  0  0  0  0
   21.7560   17.8230    5.7780 C   0  0  0  0  0  0  0  0  0  0  0  0
   23.1390   18.3630    5.8830 N   0  0  0  0  0  4  0  0  0  0  0  0
   19.4200   16.6400    5.3530 O   0  0  0  0  0  0  0  0  0  0  0  0
   18.1450   16.1680    5.2060 C   0  0  0  0  0  0  0  0  0  0  0  0
   17.1310   16.2330    6.1610 C   0  0  0  0  0  0  0  0  0  0  0  0
   15.8660   15.7050    5.8770 C   0  0  0  0  0  0  0  0  0  0  0  0
   15.6050   15.0960    4.6450 C   0  0  0  0  0  0  0  0  0  0  0  0
   16.6220   15.0410    3.6890 C   0  0  0  0  0  0  0  0  0  0  0  0
   17.8850   15.5670    3.9730 C   0  0  0  0  0  0  0  0  0  0  0  0
   14.2390   14.5570    4.3340 C   0  0  0  0  0  0  0  0  0  0  0  0
   20.5957   15.8221    3.8426 H   0  0  0  0  0  0  0  0  0  0  0  0
   20.2793   14.7363    5.2107 H   0  0  0  0  0  0  0  0  0  0  0  0
   22.6013   16.0135    4.9788 H   0  0  0  0  0  0  0  0  0  0  0  0
   21.7310   16.4171    7.6078 H   0  0  0  0  0  0  0  0  0  0  0  0
   21.2630   18.2728    4.9036 H   0  0  0  0  0  0  0  0  0  0  0  0
   21.2187   18.0728    6.7048 H   0  0  0  0  0  0  0  0  0  0  0  0
   23.3942   18.4626    6.8759 H   0  0  0  0  0  0  0  0  0  0  0  0
   23.7958   17.7166    5.4229 H   0  0  0  0  0  0  0  0  0  0  0  0
   23.1841   19.2834    5.4229 H   0  0  0  0  0  0  0  0  0  0  0  0
   17.3252   16.6994    7.1381 H   0  0  0  0  0  0  0  0  0  0  0  0
   15.0680   15.7697    6.6313 H   0  0  0  0  0  0  0  0  0  0  0  0
   16.4278   14.5817    2.7085 H   0  0  0  0  0  0  0  0  0  0  0  0
   18.6823   15.5069    3.2176 H   0  0  0  0  0  0  0  0  0  0  0  0
   13.7055   14.3465    5.2726 H   0  0  0  0  0  0  0  0  0  0  0  0
   13.6756   15.3002    3.7507 H   0  0  0  0  0  0  0  0  0  0  0  0
   14.3349   13.6293    3.7507 H   0  0  0  0  0  0  0  0  0  0  0  0
  2  1  1  0
  3  2  1  0
  4  2  1  0
  5  4  1  0
  6  1  1  0
  7  6  1  0
  8  7  2  0
  9  8  1  0
 10  9  2  0
 11 10  1  0
 12 11  2  0
 12  7  1  0
 13 10  1  0
  1 14  1  0
  1 15  1  0
  2 16  1  6
  3 17  1  0
  4 18  1  0
  4 19  1  0
  5 20  1  0
  5 21  1  0
  5 22  1  0
  8 23  1  0
  9 24  1  0
 11 25  1  0
 12 26  1  0
 13 27  1  0
 13 28  1  0
 13 29  1  0
M  CHG  1   5   1
M  END
$$$$
=
     RDKit          3D

 32 33  0  0  0  0  0  0  0  0999 V2000
   17.1190   14.8570    3.9810 N   0  0  0  0  0  0  0  0  0  0  0  0
   17.9430   13.9460    3.3460 C   0  0  0  0  0  0  0  0  0  0  0  0
   19.1580   14.0760    3.2490 O   0  0  0  0  0  0  0  0  0  0  0  0
   17.2240   12.8560    2.8580 O   0  0  0  0  0  0  0  0  0  0  0  0
   15.9240   13.1830    3.2120 C   0  0  0  0  0  0  0  0  0  0  0  0
   15.8310   14.3820    3.8900 C   0  0  0  0  0  0  0  0  0  0  0  0
   14.6220   14.8940    4.3140 C   0  0  0  0  0  0  0  0  0  0  0  0
   13.4700   14.1340    4.0670 C   0  0  0  0  0  0  0  0  0  0  0  0
   13.5710   12.9360    3.3270 C   0  0  0  0  0  0  0  0  0  0  0  0
   14.8090   12.4360    2.9090 C   0  0  0  0  0  0  0  0  0  0  0  0
   12.2090   14.6660    4.3530 N   0  0  0  0  0  0  0  0  0  0  0  0
   17.5580   16.1180    4.5190 C   0  0  0  0  0  0  0  0  0  0  0  0
   18.3340   15.9520    5.8420 C   0  0  0  0  0  0  0  0  0  0  0  0
   20.5010   14.8900    6.6320 C   0  0  0  0  0  0  0  0  0  0  0  0
   19.8410   15.8380    5.6750 N   0  0  0  0  0  4  0  0  0  0  0  0
   20.5390   17.1760    5.6100 C   0  0  0  0  0  0  0  0  0  0  0  0
   14.5639   15.8648    4.8280 H   0  0  0  0  0  0  0  0  0  0  0  0
   12.6548   12.3827    3.0731 H   0  0  0  0  0  0  0  0  0  0  0  0
   14.8876   11.4854    2.3610 H   0  0  0  0  0  0  0  0  0  0  0  0
   11.3618   14.1088    4.1720 H   0  0  0  0  0  0  0  0  0  0  0  0
   12.1272   15.6151    4.7446 H   0  0  0  0  0  0  0  0  0  0  0  0
   18.2134   16.6074    3.7835 H   0  0  0  0  0  0  0  0  0  0  0  0
   16.6642   16.7245    4.7270 H   0  0  0  0  0  0  0  0  0  0  0  0
   18.1231   16.8253    6.4767 H   0  0  0  0  0  0  0  0  0  0  0  0
   17.9947   15.0059    6.2889 H   0  0  0  0  0  0  0  0  0  0  0  0
   20.2843   15.2013    7.6645 H   0  0  0  0  0  0  0  0  0  0  0  0
   20.1142   13.8736    6.4666 H   0  0  0  0  0  0  0  0  0  0  0  0
   21.5885   14.8999    6.4666 H   0  0  0  0  0  0  0  0  0  0  0  0
   19.9582   15.4054    4.7476 H   0  0  0  0  0  0  0  0  0  0  0  0
   20.7291   17.5404    6.6304 H   0  0  0  0  0  0  0  0  0  0  0  0
   21.4944   17.0656    5.0762 H   0  0  0  0  0  0  0  0  0  0  0  0
   19.9018   17.8964    5.0762 H   0  0  0  0  0  0  0  0  0  0  0  0
  2  1  1  0
  3  2  2  0
  4  2  1  0
  5  4  1  0
  6  5  2  0
  6  1  1  0
  7  6  1  0
  8  7  2  0
  9  8  1  0
 10  9  2  0
 10  5  1  0
 11  8  1  0
 12  1  1  0
 13 12  1  0
 15 14  1  0
 15 13  1  0
 16 15  1  0
  7 17  1  0
  9 18  1  0
 10 19  1  0
 11 20  1  0
 11 21  1  0
 12 22  1  0
 12 23  1  0
 13 24  1  0
 13 25  1  0
 14 26  1  0
 14 27  1  0
 14 28  1  0
 15 29  1  0
 16 30  1  0
 16 31  1  0
 16 32  1  0
M  CHG  1  15   1
M  END
$$$$
=
     RDKit          3D

 22 22  0  0  0  0  0  0  0  0999 V2000
   18.2540   15.8880    5.3460 C   0  0  2  0  0  0  0  0  0  0  0  0
   17.3930   17.0280    5.8250 C   0  0  0  0  0  0  0  0  0  0  0  0
   16.7580   15.6960    5.5150 C   0  0  1  0  0  0  0  0  0  0  0  0
   19.1220   15.2520    6.3710 N   0  0  0  0  0  4  0  0  0  0  0  0
   18.8740   15.9330    3.9750 C   0  0  0  0  0  0  0  0  0  0  0  0
   19.1740   14.9250    3.3590 O   0  0  0  0  0  0  0  0  0  0  0  0
   19.5650   17.3380    2.2400 C   0  0  0  0  0  0  0  0  0  0  0  0
   18.9410   17.2150    3.5230 O   0  0  0  0  0  0  0  0  0  0  0  0
   15.8790   15.5970    4.3460 C   0  0  0  0  0  0  0  0  0  0  0  0
   14.5410   15.5710    4.3740 C   0  0  0  0  0  0  0  0  0  0  0  0
   17.4671   17.3712    6.8675 H   0  0  0  0  0  0  0  0  0  0  0  0
   17.2233   18.0633    5.4943 H   0  0  0  0  0  0  0  0  0  0  0  0
   16.1354   14.9692    6.0573 H   0  0  0  0  0  0  0  0  0  0  0  0
   18.7823   15.5009    7.3109 H   0  0  0  0  0  0  0  0  0  0  0  0
   19.0956   14.2288    6.2562 H   0  0  0  0  0  0  0  0  0  0  0  0
   20.0897   15.5855    6.2562 H   0  0  0  0  0  0  0  0  0  0  0  0
   20.6364   17.5492    2.3721 H   0  0  0  0  0  0  0  0  0  0  0  0
   19.4427   16.3985    1.6812 H   0  0  0  0  0  0  0  0  0  0  0  0
   19.0953   18.1608    1.6812 H   0  0  0  0  0  0  0  0  0  0  0  0
   16.3614   15.5390    3.3591 H   0  0  0  0  0  0  0  0  0  0  0  0
   13.9726   15.4944    3.4353 H   0  0  0  0  0  0  0  0  0  0  0  0
   14.0098   15.6263    5.3357 H   0  0  0  0  0  0  0  0  0  0  0  0
  2  1  1  0
  3  1  1  0
  3  2  1  0
  4  1  1  0
  1  5  1  6
  6  5  2  0
  8  5  1  0
  8  7  1  0
  9  3  1  0
 10  9  2  3
  2 11  1  0
  2 12  1  0
  3 13  1  1
  4 14  1  0
  4 15  1  0
  4 16  1  0
  7 17  1  0
  7 18  1  0
  7 19  1  0
  9 20  1  0
 10 21  1  0
 10 22  1  0
M  CHG  1   4   1
M  END
$$$$
=
     RDKit          3D

 45 46  0  0  0  0  0  0  0  0999 V2000
   27.1980   27.1450   13.5210 C   0  0  0  0  0  0  0  0  0  0  0  0
   28.4320   26.8880   12.9040 C   0  0  0  0  0  0  0  0  0  0  0  0
   28.5700   25.8680   11.9540 C   0  0  0  0  0  0  0  0  0  0  0  0
   27.4890   25.0650   11.6020 C   0  0  0  0  0  0  0  0  0  0  0  0
   26.2330   25.3800   12.1200 C   0  0  0  0  0  0  0  0  0  0  0  0
   26.0740   26.4040   13.0620 C   0  0  0  0  0  0  0  0  0  0  0  0
   30.8500   28.3880   16.4020 C   0  0  0  0  0  0  0  0  0  0  0  0
   29.5360   28.2650   15.7030 N   0  0  0  0  0  4  0  0  0  0  0  0
   28.5750   27.3160   16.4110 C   0  0  0  0  0  0  0  0  0  0  0  0
   27.1190   27.5020   15.9270 C   0  0  0  0  0  0  0  0  0  0  0  0
   27.0420   28.0870   14.5610 N   0  0  0  0  0  0  0  0  0  0  0  0
   27.6670   29.4240   14.4450 C   0  0  0  0  0  0  0  0  0  0  0  0
   28.8920   29.6030   15.3790 C   0  0  0  0  0  0  0  0  0  0  0  0
   24.8030   26.8250   13.5170 N   0  0  0  0  0  0  0  0  0  0  0  0
   23.9680   26.1840   14.4100 C   0  0  0  0  0  0  0  0  0  0  0  0
   24.2670   25.2040   15.0850 O   0  0  0  0  0  0  0  0  0  0  0  0
   22.5940   26.8370   14.5610 C   0  0  0  0  0  0  0  0  0  0  0  0
   21.5380   25.8230   14.9900 C   0  0  0  0  0  0  0  0  0  0  0  0
   22.1840   27.5650   13.2840 C   0  0  0  0  0  0  0  0  0  0  0  0
   27.6130   24.1370   10.5670 N   0  0  0  0  0  0  0  0  0  0  0  0
   29.3069   27.4988   13.1713 H   0  0  0  0  0  0  0  0  0  0  0  0
   29.5476   25.6990   11.4789 H   0  0  0  0  0  0  0  0  0  0  0  0
   25.3519   24.8143   11.7828 H   0  0  0  0  0  0  0  0  0  0  0  0
   30.6893   28.3730   17.4901 H   0  0  0  0  0  0  0  0  0  0  0  0
   31.4980   27.5466   16.1154 H   0  0  0  0  0  0  0  0  0  0  0  0
   31.3306   29.3351   16.1154 H   0  0  0  0  0  0  0  0  0  0  0  0
   29.7561   27.8345   14.7935 H   0  0  0  0  0  0  0  0  0  0  0  0
   28.8865   26.2802   16.2110 H   0  0  0  0  0  0  0  0  0  0  0  0
   28.6072   27.5394   17.4876 H   0  0  0  0  0  0  0  0  0  0  0  0
   26.6221   26.5207   15.9188 H   0  0  0  0  0  0  0  0  0  0  0  0
   26.6243   28.2007   16.6177 H   0  0  0  0  0  0  0  0  0  0  0  0
   27.9949   29.5687   13.4050 H   0  0  0  0  0  0  0  0  0  0  0  0
   26.9132   30.1669   14.7448 H   0  0  0  0  0  0  0  0  0  0  0  0
   29.6322   30.2462   14.8807 H   0  0  0  0  0  0  0  0  0  0  0  0
   28.5498   30.0615   16.3185 H   0  0  0  0  0  0  0  0  0  0  0  0
   24.4586   27.7179   13.1360 H   0  0  0  0  0  0  0  0  0  0  0  0
   22.6699   27.5884   15.3608 H   0  0  0  0  0  0  0  0  0  0  0  0
   21.4946   25.7813   16.0883 H   0  0  0  0  0  0  0  0  0  0  0  0
   20.5569   26.1261   14.5955 H   0  0  0  0  0  0  0  0  0  0  0  0
   21.8011   24.8305   14.5955 H   0  0  0  0  0  0  0  0  0  0  0  0
   21.6596   28.4961   13.5450 H   0  0  0  0  0  0  0  0  0  0  0  0
   23.0810   27.8026   12.6933 H   0  0  0  0  0  0  0  0  0  0  0  0
   21.5158   26.9211   12.6933 H   0  0  0  0  0  0  0  0  0  0  0  0
   26.8116   23.5439   10.3083 H   0  0  0  0  0  0  0  0  0  0  0  0
   28.5059   24.0452   10.0618 H   0  0  0  0  0  0  0  0  0  0  0  0
  2  1  2  0
  3  2  1  0
  4  3  2  0
  5  4  1  0
  6  5  2  0
  6  1  1  0
  8  7  1  0
  9  8  1  0
 10  9  1  0
 11  1  1  0
 11 10  1  0
 12 11  1  0
 13 12  1  0
 13  8  1  0
 14  6  1  0
 15 14  1  0
 16 15  2  0
 17 15  1  0
 18 17  1  0
 19 17  1  0
 20  4  1  0
  2 21  1  0
  3 22  1  0
  5 23  1  0
  7 24  1  0
  7 25  1  0
  7 26  1  0
  8 27  1  0
  9 28  1  0
  9 29  1  0
 10 30  1  0
 10 31  1  0
 12 32  1  0
 12 33  1  0
 13 34  1  0
 13 35  1  0
 14 36  1  0
 17 37  1  0
 18 38  1  0
 18 39  1  0
 18 40  1  0
 19 41  1  0
 19 42  1  0
 19 43  1  0
 20 44  1  0
 20 45  1  0
M  CHG  1   8   1
M  END
$$$$
=
     RDKit          3D

 35 35  0  0  0  0  0  0  0  0999 V2000
   18.2660   15.6210    4.1910 N   0  0  0  0  0  4  0  0  0  0  0  0
   19.1690   14.4840    4.6650 C   0  0  0  0  0  0  0  0  0  0  0  0
   20.6690   14.9900    6.6120 C   0  0  0  0  0  0  0  0  0  0  0  0
   19.5050   14.5440    6.1200 C   0  0  0  0  0  0  0  0  0  0  0  0
   18.9730   16.5390    3.2150 C   0  0  0  0  0  0  0  0  0  0  0  0
   19.5980   17.7770    3.8710 C   0  0  2  0  0  0  0  0  0  0  0  0
   21.1090   17.6180    4.0700 C   0  0  0  0  0  0  0  0  0  0  0  0
   21.4440   18.6070    5.1470 N   0  0  0  0  0  4  0  0  0  0  0  0
   20.1780   19.0370    5.8260 C   0  0  0  0  0  0  0  0  0  0  0  0
   19.1270   18.0720    5.2940 C   0  0  0  0  0  0  0  0  0  0  0  0
   16.9390   15.0610    3.7080 C   0  0  0  0  0  0  0  0  0  0  0  0
   15.8000   15.4040    4.6140 C   0  0  0  0  0  0  0  0  0  0  0  0
   15.9120   15.6850    5.9200 C   0  0  0  0  0  0  0  0  0  0  0  0
   18.0416   16.2382    4.9844 H   0  0  0  0  0  0  0  0  0  0  0  0
   18.6581   13.5303    4.4666 H   0  0  0  0  0  0  0  0  0  0  0  0
   20.1166   14.5781    4.1143 H   0  0  0  0  0  0  0  0  0  0  0  0
   20.8383   15.0017    7.6988 H   0  0  0  0  0  0  0  0  0  0  0  0
   21.4551   15.3444    5.9290 H   0  0  0  0  0  0  0  0  0  0  0  0
   18.7449   14.1984    6.8361 H   0  0  0  0  0  0  0  0  0  0  0  0
   19.7722   15.9686    2.7191 H   0  0  0  0  0  0  0  0  0  0  0  0
   18.2126   16.9009    2.5073 H   0  0  0  0  0  0  0  0  0  0  0  0
   19.2990   18.5705    3.1703 H   0  0  0  0  0  0  0  0  0  0  0  0
   21.3549   16.5946    4.3898 H   0  0  0  0  0  0  0  0  0  0  0  0
   21.6769   17.7942    3.1445 H   0  0  0  0  0  0  0  0  0  0  0  0
   22.0730   18.1687    5.8348 H   0  0  0  0  0  0  0  0  0  0  0  0
   21.9127   19.4259    4.7339 H   0  0  0  0  0  0  0  0  0  0  0  0
   20.2714   18.9496    6.9185 H   0  0  0  0  0  0  0  0  0  0  0  0
   19.9266   20.0889    5.6250 H   0  0  0  0  0  0  0  0  0  0  0  0
   18.1312   18.5394    5.2892 H   0  0  0  0  0  0  0  0  0  0  0  0
   19.0293   17.1650    5.9086 H   0  0  0  0  0  0  0  0  0  0  0  0
   16.7282   15.4695    2.7087 H   0  0  0  0  0  0  0  0  0  0  0  0
   17.0293   13.9648    3.6906 H   0  0  0  0  0  0  0  0  0  0  0  0
   14.7918   15.4276    4.1747 H   0  0  0  0  0  0  0  0  0  0  0  0
   15.0153   15.9271    6.5094 H   0  0  0  0  0  0  0  0  0  0  0  0
   16.9006   15.6735    6.4023 H   0  0  0  0  0  0  0  0  0  0  0  0
  2  1  1  0
  4  2  1  0
  4  3  2  3
  5  1  1  0
  6  5  1  0
  7  6  1  0
  8  7  1  0
  9  8  1  0
 10  6  1  0
 10  9  1  0
 11  1  1  0
 12 11  1  0
 13 12  2  3
  1 14  1  0
  2 15  1  0
  2 16  1  0
  3 17  1  0
  3 18  1  0
  4 19  1  0
  5 20  1  0
  5 21  1  0
  6 22  1  6
  7 23  1  0
  7 24  1  0
  8 25  1  0
  8 26  1  0
  9 27  1  0
  9 28  1  0
 10 29  1  0
 10 30  1  0
 11 31  1  0
 11 32  1  0
 12 33  1  0
 13 34  1  0
 13 35  1  0
M  CHG  2   1   1   8   1
M  END
$$$$
=
     RDKit          3D

 23 23  0  0  0  0  0  0  0  0999 V2000
   20.3860   15.9940    5.0760 C   0  0  0  0  0  0  0  0  0  0  0  0
   20.2570   16.8890    4.0030 C   0  0  0  0  0  0  0  0  0  0  0  0
   21.0970   18.0020    3.9060 C   0  0  0  0  0  0  0  0  0  0  0  0
   22.0630   18.2200    4.8820 C   0  0  0  0  0  0  0  0  0  0  0  0
   22.2090   17.3470    5.9520 C   0  0  0  0  0  0  0  0  0  0  0  0
   21.3710   16.2380    6.0400 C   0  0  0  0  0  0  0  0  0  0  0  0
   21.4920   15.3610    7.0830 O   0  0  0  0  0  0  0  0  0  0  0  0
   22.9010   19.2930    4.8290 O   0  0  0  0  0  0  0  0  0  0  0  0
   19.4850   14.7920    5.1840 C   0  0  0  0  0  0  0  0  0  0  0  0
   18.5360   14.6940    3.9920 C   0  0  0  0  0  0  0  0  0  0  0  0
   18.8600   13.4830    3.1890 N   0  0  0  0  0  4  0  0  0  0  0  0
   19.4904   16.7137    3.2338 H   0  0  0  0  0  0  0  0  0  0  0  0
   20.9945   18.7010    3.0629 H   0  0  0  0  0  0  0  0  0  0  0  0
   22.9758   17.5288    6.7194 H   0  0  0  0  0  0  0  0  0  0  0  0
   22.1807   15.5107    7.7783 H   0  0  0  0  0  0  0  0  0  0  0  0
   23.5806   19.4258    5.5366 H   0  0  0  0  0  0  0  0  0  0  0  0
   20.1042   13.8837    5.2233 H   0  0  0  0  0  0  0  0  0  0  0  0
   18.8813   14.8947    6.0978 H   0  0  0  0  0  0  0  0  0  0  0  0
   17.4998   14.6255    4.3546 H   0  0  0  0  0  0  0  0  0  0  0  0
   18.6494   15.5888    3.3624 H   0  0  0  0  0  0  0  0  0  0  0  0
   19.0701   12.6977    3.8215 H   0  0  0  0  0  0  0  0  0  0  0  0
   18.0546   13.2394    2.5950 H   0  0  0  0  0  0  0  0  0  0  0  0
   19.6794   13.6741    2.5950 H   0  0  0  0  0  0  0  0  0  0  0  0
  2  1  2  0
  3  2  1  0
  4  3  2  0
  5  4  1  0
  6  1  1  0
  6  5  2  0
  7  6  1  0
  8  4  1  0
  9  1  1  0
 10  9  1  0
 11 10  1  0
  2 12  1  0
  3 13  1  0
  5 14  1  0
  7 15  1  0
  8 16  1  0
  9 17  1  0
  9 18  1  0
 10 19  1  0
 10 20  1  0
 11 21  1  0
 11 22  1  0
 11 23  1  0
M  CHG  1  11   1
M  END
$$$$
=
     RDKit          3D

 42 43  0  0  0  0  0  0  0  0999 V2000
   20.2410   15.0350    4.1070 N   0  0  0  0  0  4  0  0  0  0  0  0
   19.3570   17.4730    2.6800 C   0  0  0  0  0  0  0  0  0  0  0  0
   18.3410   16.5050    3.2670 C   0  0  2  0  0  0  0  0  0  0  0  0
   17.6880   16.9970    4.5570 C   0  0  0  0  0  0  0  0  0  0  0  0
   16.9670   15.7490    5.1100 C   0  0  0  0  0  0  0  0  0  0  0  0
   17.8390   14.5500    4.6550 C   0  0  0  0  0  0  0  0  0  0  0  0
   18.8330   15.0970    3.6170 C   0  0  2  0  0  0  0  0  0  0  0  0
   15.5530   15.6340    4.5110 C   0  0  0  0  0  0  0  0  0  0  0  0
   16.8450   15.8160    6.6360 C   0  0  0  0  0  0  0  0  0  0  0  0
   20.5850   15.1250    5.5740 C   0  0  0  0  0  0  0  0  0  0  0  0
   21.4870   16.3520    5.7640 C   0  0  1  0  0  0  0  0  0  0  0  0
   22.3620   16.6790    4.5630 C   0  0  0  0  0  0  0  0  0  0  0  0
   22.7670   18.0370    4.7750 O   0  0  0  0  0  0  0  0  0  0  0  0
   21.7660   18.7010    5.5630 C   0  0  0  0  0  0  0  0  0  0  0  0
   20.7350   17.6540    5.9540 C   0  0  0  0  0  0  0  0  0  0  0  0
   22.3190   16.0820    6.9140 O   0  0  0  0  0  0  0  0  0  0  0  0
   20.6213   14.1365    3.7769 H   0  0  0  0  0  0  0  0  0  0  0  0
   20.6354   15.9126    3.7395 H   0  0  0  0  0  0  0  0  0  0  0  0
   19.8917   17.9824    3.4953 H   0  0  0  0  0  0  0  0  0  0  0  0
   20.0766   16.9180    2.0601 H   0  0  0  0  0  0  0  0  0  0  0  0
   18.8375   18.2186    2.0601 H   0  0  0  0  0  0  0  0  0  0  0  0
   17.6457   16.4561    2.4160 H   0  0  0  0  0  0  0  0  0  0  0  0
   18.4472   17.3567    5.2671 H   0  0  0  0  0  0  0  0  0  0  0  0
   17.0038   17.8419    4.3897 H   0  0  0  0  0  0  0  0  0  0  0  0
   18.3814   14.1279    5.5139 H   0  0  0  0  0  0  0  0  0  0  0  0
   17.2187   13.7492    4.2260 H   0  0  0  0  0  0  0  0  0  0  0  0
   18.8612   14.4828    2.7049 H   0  0  0  0  0  0  0  0  0  0  0  0
   14.8142   15.5739    5.3238 H   0  0  0  0  0  0  0  0  0  0  0  0
   15.3446   16.5182    3.8907 H   0  0  0  0  0  0  0  0  0  0  0  0
   15.4902   14.7278    3.8907 H   0  0  0  0  0  0  0  0  0  0  0  0
   17.7211   15.3349    7.0953 H   0  0  0  0  0  0  0  0  0  0  0  0
   16.7955   16.8679    6.9541 H   0  0  0  0  0  0  0  0  0  0  0  0
   15.9308   15.2934    6.9541 H   0  0  0  0  0  0  0  0  0  0  0  0
   19.6665   15.2389    6.1685 H   0  0  0  0  0  0  0  0  0  0  0  0
   21.0996   14.2116    5.9071 H   0  0  0  0  0  0  0  0  0  0  0  0
   23.2369   16.0133    4.5263 H   0  0  0  0  0  0  0  0  0  0  0  0
   21.8312   16.5443    3.6090 H   0  0  0  0  0  0  0  0  0  0  0  0
   22.2228   19.1354    6.4645 H   0  0  0  0  0  0  0  0  0  0  0  0
   21.2976   19.5169    4.9929 H   0  0  0  0  0  0  0  0  0  0  0  0
   20.4199   17.7801    7.0003 H   0  0  0  0  0  0  0  0  0  0  0  0
   19.8100   17.7122    5.3615 H   0  0  0  0  0  0  0  0  0  0  0  0
   21.8024   16.2496    7.7417 H   0  0  0  0  0  0  0  0  0  0  0  0
  3  2  1  0
  4  3  1  0
  5  4  1  0
  6  5  1  0
  7  6  1  0
  7  1  1  0
  7  3  1  0
  8  5  1  0
  9  5  1  0
 10  1  1  0
 11 10  1  0
 12 11  1  0
 13 12  1  0
 14 13  1  0
 15 14  1  0
 15 11  1  0
 11 16  1  1
  1 17  1  0
  1 18  1  0
  2 19  1  0
  2 20  1  0
  2 21  1  0
  3 22  1  6
  4 23  1  0
  4 24  1  0
  6 25  1  0
  6 26  1  0
  7 27  1  6
  8 28  1  0
  8 29  1  0
  8 30  1  0
  9 31  1  0
  9 32  1  0
  9 33  1  0
 10 34  1  0
 10 35  1  0
 12 36  1  0
 12 37  1  0
 14 38  1  0
 14 39  1  0
 15 40  1  0
 15 41  1  0
 16 42  1  0
M  CHG  1   1   1
M  END
$$$$
=
     RDKit          3D

 24 25  0  0  0  0  0  0  0  0999 V2000
   22.9830   18.4790    5.5180 N   0  0  0  0  0  0  0  0  0  0  0  0
   22.0860   17.4330    5.5540 C   0  0  0  0  0  0  0  0  0  0  0  0
   22.2010   16.5570    6.5520 N   0  0  0  0  0  0  0  0  0  0  0  0
   21.3260   15.5360    6.5570 C   0  0  0  0  0  0  0  0  0  0  0  0
   20.3560   15.3650    5.6000 C   0  0  0  0  0  0  0  0  0  0  0  0
   20.3230   16.3110    4.5920 C   0  0  0  0  0  0  0  0  0  0  0  0
   21.1950   17.3470    4.5600 N   0  0  0  0  0  0  0  0  0  0  0  0
   19.3020   16.2570    3.4740 C   0  0  2  0  0  0  0  0  0  0  0  0
   19.3830   17.4720    2.5460 C   0  0  0  0  0  0  0  0  0  0  0  0
   17.9710   16.0280    4.0180 N   0  0  0  0  0  0  0  0  0  0  0  0
   17.1310   14.9950    3.7250 C   0  0  0  0  0  0  0  0  0  0  0  0
   16.0140   15.1320    4.3980 N   0  0  0  0  0  0  0  0  0  0  0  0
   16.2200   16.2790    5.1090 C   0  0  0  0  0  0  0  0  0  0  0  0
   17.4050   16.8640    4.9160 N   0  0  0  0  0  0  0  0  0  0  0  0
   22.9289   19.1781    4.7636 H   0  0  0  0  0  0  0  0  0  0  0  0
   23.7074   18.5615    6.2455 H   0  0  0  0  0  0  0  0  0  0  0  0
   21.3906   14.7987    7.3707 H   0  0  0  0  0  0  0  0  0  0  0  0
   19.6469   14.5247    5.6334 H   0  0  0  0  0  0  0  0  0  0  0  0
   19.5412   15.3990    2.8286 H   0  0  0  0  0  0  0  0  0  0  0  0
   19.4442   18.3902    3.1486 H   0  0  0  0  0  0  0  0  0  0  0  0
   20.2776   17.3896    1.9113 H   0  0  0  0  0  0  0  0  0  0  0  0
   18.4853   17.5091    1.9113 H   0  0  0  0  0  0  0  0  0  0  0  0
   17.3559   14.1724    3.0302 H   0  0  0  0  0  0  0  0  0  0  0  0
   15.4636   16.6921    5.7925 H   0  0  0  0  0  0  0  0  0  0  0  0
  2  1  1  0
  3  2  2  0
  4  3  1  0
  5  4  2  0
  6  5  1  0
  7  6  2  0
  7  2  1  0
  8  6  1  0
  9  8  1  0
 10  8  1  0
 11 10  1  0
 12 11  2  0
 13 12  1  0
 14 13  2  0
 14 10  1  0
  1 15  1  0
  1 16  1  0
  4 17  1  0
  5 18  1  0
  8 19  1  6
  9 20  1  0
  9 21  1  0
  9 22  1  0
 11 23  1  0
 13 24  1  0
M  END
$$$$
=
     RDKit          3D

 32 33  0  0  0  0  0  0  0  0999 V2000
   18.2450   14.8260    3.5800 S   0  0  0  0  0  6  0  0  0  0  0  0
   18.4180   15.9840    2.7310 O   0  0  0  0  0  0  0  0  0  0  0  0
   18.8840   13.5570    3.2970 O   0  0  0  0  0  0  0  0  0  0  0  0
   14.5760   13.1580    3.2800 C   0  0  0  0  0  0  0  0  0  0  0  0
   13.7960   14.0360    4.0410 C   0  0  0  0  0  0  0  0  0  0  0  0
   14.3540   15.1810    4.6180 C   0  0  0  0  0  0  0  0  0  0  0  0
   15.7130   15.4440    4.4700 C   0  0  0  0  0  0  0  0  0  0  0  0
   16.5040   14.5430    3.7530 C   0  0  0  0  0  0  0  0  0  0  0  0
   15.9480   13.3920    3.1840 C   0  0  0  0  0  0  0  0  0  0  0  0
   14.0330   11.9550    2.8190 N   0  0  0  0  0  0  0  0  0  0  0  0
   18.6570   15.2160    5.1930 N   0  0  0  0  0  0  0  0  0  0  0  0
   19.1890   16.5380    5.3460 C   0  0  0  0  0  0  0  0  0  0  0  0
   18.3710   17.5790    5.7870 C   0  0  0  0  0  0  0  0  0  0  0  0
   18.9120   18.8480    5.9830 C   0  0  0  0  0  0  0  0  0  0  0  0
   20.2700   19.0740    5.7500 C   0  0  0  0  0  0  0  0  0  0  0  0
   21.1030   18.0290    5.3190 C   0  0  0  0  0  0  0  0  0  0  0  0
   20.5500   16.7530    5.1330 C   0  0  0  0  0  0  0  0  0  0  0  0
   22.5770   18.2640    5.1030 C   0  0  0  0  0  0  0  0  0  0  0  0
   23.1520   17.3120    4.3140 F   0  0  0  0  0  0  0  0  0  0  0  0
   23.2970   18.2670    6.2600 F   0  0  0  0  0  0  0  0  0  0  0  0
   22.8330   19.4550    4.4970 F   0  0  0  0  0  0  0  0  0  0  0  0
   12.7270   13.8220    4.1876 H   0  0  0  0  0  0  0  0  0  0  0  0
   13.7189   15.8742    5.1891 H   0  0  0  0  0  0  0  0  0  0  0  0
   16.1576   16.3482    4.9113 H   0  0  0  0  0  0  0  0  0  0  0  0
   16.5932   12.6710    2.6606 H   0  0  0  0  0  0  0  0  0  0  0  0
   14.6096   11.3108    2.2591 H   0  0  0  0  0  0  0  0  0  0  0  0
   13.0564   11.7129    3.0393 H   0  0  0  0  0  0  0  0  0  0  0  0
   18.5345   14.5629    5.9800 H   0  0  0  0  0  0  0  0  0  0  0  0
   17.3031   17.3984    5.9792 H   0  0  0  0  0  0  0  0  0  0  0  0
   18.2682   19.6731    6.3218 H   0  0  0  0  0  0  0  0  0  0  0  0
   20.6906   20.0785    5.9053 H   0  0  0  0  0  0  0  0  0  0  0  0
   21.1933   15.9183    4.8176 H   0  0  0  0  0  0  0  0  0  0  0  0
  2  1  2  0
  3  1  2  0
  5  4  2  0
  6  5  1  0
  7  6  2  0
  8  7  1  0
  8  1  1  0
  9  4  1  0
  9  8  2  0
 10  4  1  0
 11  1  1  0
 12 11  1  0
 13 12  2  0
 14 13  1  0
 15 14  2  0
 16 15  1  0
 17 16  2  0
 17 12  1  0
 18 16  1  0
 19 18  1  0
 20 18  1  0
 21 18  1  0
  5 22  1  0
  6 23  1  0
  7 24  1  0
  9 25  1  0
 10 26  1  0
 10 27  1  0
 11 28  1  0
 13 29  1  0
 14 30  1  0
 15 31  1  0
 17 32  1  0
M  END
$$$$
=
     RDKit          3D

 36 36  0  0  0  0  0  0  0  0999 V2000
   20.3140   15.9850    4.5320 C   0  0  0  0  0  0  0  0  0  0  0  0
   20.6990   17.0590    5.6020 C   0  0  2  0  0  0  0  0  0  0  0  0
   20.7140   18.4920    5.0720 C   0  0  0  0  0  0  0  0  0  0  0  0
   22.1460   18.7090    4.6160 C   0  0  0  0  0  0  0  0  0  0  0  0
   22.9610   18.0530    5.7090 C   0  0  0  0  0  0  0  0  0  0  0  0
   22.1250   16.8580    6.1060 N   0  0  0  0  0  4  0  0  0  0  0  0
   18.9340   15.3660    4.7190 N   0  0  2  0  0  4  0  0  0  0  0  0
   18.6540   14.1760    3.8240 C   0  0  0  0  0  0  0  0  0  0  0  0
   17.8000   16.3990    4.6560 C   0  0  0  0  0  0  0  0  0  0  0  0
   17.0210   16.5010    5.9650 C   0  0  0  0  0  0  0  0  0  0  0  0
   15.0780   15.5670    4.6570 C   0  0  0  0  0  0  0  0  0  0  0  0
   15.8430   15.5240    5.9690 C   0  0  0  0  0  0  0  0  0  0  0  0
   20.3441   16.4622    3.5413 H   0  0  0  0  0  0  0  0  0  0  0  0
   21.0394   15.1652    4.6397 H   0  0  0  0  0  0  0  0  0  0  0  0
   19.9281   16.9271    6.3755 H   0  0  0  0  0  0  0  0  0  0  0  0
   20.0158   18.6030    4.2293 H   0  0  0  0  0  0  0  0  0  0  0  0
   20.3993   19.2237    5.8306 H   0  0  0  0  0  0  0  0  0  0  0  0
   22.3280   18.2260    3.6446 H   0  0  0  0  0  0  0  0  0  0  0  0
   22.3958   19.7703    4.4701 H   0  0  0  0  0  0  0  0  0  0  0  0
   23.9439   17.7364    5.3299 H   0  0  0  0  0  0  0  0  0  0  0  0
   23.1687   18.7287    6.5518 H   0  0  0  0  0  0  0  0  0  0  0  0
   22.1189   16.7665    7.1319 H   0  0  0  0  0  0  0  0  0  0  0  0
   22.5226   16.0026    5.6924 H   0  0  0  0  0  0  0  0  0  0  0  0
   18.9568   14.9926    5.6786 H   0  0  0  0  0  0  0  0  0  0  0  0
   18.4459   13.2917    4.4442 H   0  0  0  0  0  0  0  0  0  0  0  0
   17.7821   14.3919    3.1890 H   0  0  0  0  0  0  0  0  0  0  0  0
   19.5307   13.9805    3.1890 H   0  0  0  0  0  0  0  0  0  0  0  0
   18.2336   17.3837    4.4271 H   0  0  0  0  0  0  0  0  0  0  0  0
   17.0966   16.0723    3.8759 H   0  0  0  0  0  0  0  0  0  0  0  0
   17.6912   16.2624    6.8040 H   0  0  0  0  0  0  0  0  0  0  0  0
   16.6325   17.5250    6.0673 H   0  0  0  0  0  0  0  0  0  0  0  0
   13.9992   15.6276    4.8634 H   0  0  0  0  0  0  0  0  0  0  0  0
   15.3909   16.4490    4.0789 H   0  0  0  0  0  0  0  0  0  0  0  0
   15.2900   14.6555    4.0789 H   0  0  0  0  0  0  0  0  0  0  0  0
   15.1605   15.7907    6.7894 H   0  0  0  0  0  0  0  0  0  0  0  0
   16.2394   14.5068    6.1036 H   0  0  0  0  0  0  0  0  0  0  0  0
  2  1  1  0
  3  2  1  0
  4  3  1  0
  5  4  1  0
  6  2  1  0
  6  5  1  0
  7  1  1  0
  8  7  1  0
  9  7  1  0
 10  9  1  0
 12 11  1  0
 12 10  1  0
  1 13  1  0
  1 14  1  0
  2 15  1  1
  3 16  1  0
  3 17  1  0
  4 18  1  0
  4 19  1  0
  5 20  1  0
  5 21  1  0
  6 22  1  0
  6 23  1  0
  7 24  1  1
  8 25  1  0
  8 26  1  0
  8 27  1  0
  9 28  1  0
  9 29  1  0
 10 30  1  0
 10 31  1  0
 11 32  1  0
 11 33  1  0
 11 34  1  0
 12 35  1  0
 12 36  1  0
M  CHG  2   6   1   7   1
M  END
$$$$
=
     RDKit          3D

 22 22  0  0  0  0  0  0  0  0999 V2000
   22.2370   16.7630    6.5560 O   0  0  0  0  0  0  0  0  0  0  0  0
   21.5040   16.6570    5.5820 C   0  0  0  0  0  0  0  0  0  0  0  0
   21.6640   17.5370    4.3210 C   0  0  2  0  0  0  0  0  0  0  0  0
   22.4090   18.8300    4.6130 C   0  0  0  0  0  0  0  0  0  0  0  0
   20.3020   17.8940    3.7540 N   0  0  0  0  0  4  0  0  0  0  0  0
   19.4670   16.6980    3.3910 C   0  0  0  0  0  0  0  0  0  0  0  0
   19.8700   15.4420    4.1860 C   0  0  0  0  0  0  0  0  0  0  0  0
   20.4460   15.7420    5.4960 N   0  0  0  0  0  0  0  0  0  0  0  0
   20.3170   14.7360    6.5400 C   0  0  0  0  0  0  0  0  0  0  0  0
   22.2468   16.9480    3.5975 H   0  0  0  0  0  0  0  0  0  0  0  0
   22.4892   18.9692    5.7012 H   0  0  0  0  0  0  0  0  0  0  0  0
   23.4166   18.7797    4.1745 H   0  0  0  0  0  0  0  0  0  0  0  0
   21.8602   19.6765    4.1745 H   0  0  0  0  0  0  0  0  0  0  0  0
   19.7911   18.4459    4.4578 H   0  0  0  0  0  0  0  0  0  0  0  0
   20.4664   18.4217    2.8849 H   0  0  0  0  0  0  0  0  0  0  0  0
   18.4116   16.9263    3.6010 H   0  0  0  0  0  0  0  0  0  0  0  0
   19.6271   16.4868    2.3234 H   0  0  0  0  0  0  0  0  0  0  0  0
   18.9743   14.8207    4.3333 H   0  0  0  0  0  0  0  0  0  0  0  0
   20.6451   14.9239    3.6022 H   0  0  0  0  0  0  0  0  0  0  0  0
   20.3791   15.2204    7.5256 H   0  0  0  0  0  0  0  0  0  0  0  0
   19.3463   14.2279    6.4417 H   0  0  0  0  0  0  0  0  0  0  0  0
   21.1280   13.9994    6.4417 H   0  0  0  0  0  0  0  0  0  0  0  0
  2  1  2  0
  3  2  1  0
  4  3  1  0
  5  3  1  0
  6  5  1  0
  7  6  1  0
  8  7  1  0
  8  2  1  0
  9  8  1  0
  3 10  1  6
  4 11  1  0
  4 12  1  0
  4 13  1  0
  5 14  1  0
  5 15  1  0
  6 16  1  0
  6 17  1  0
  7 18  1  0
  7 19  1  0
  9 20  1  0
  9 21  1  0
  9 22  1  0
M  CHG  1   5   1
M  END
$$$$
=
     RDKit          3D

 40 41  0  0  0  0  0  0  0  0999 V2000
   19.7950   17.9870    5.0760 C   0  0  0  0  0  0  0  0  0  0  0  0
   18.7840   16.8510    5.2230 C   0  0  2  0  0  0  0  0  0  0  0  0
   18.6520   16.0850    3.9100 C   0  0  0  0  0  0  0  0  0  0  0  0
   17.6130   15.0210    4.0570 N   0  0  0  0  0  4  0  0  0  0  0  0
   16.2480   15.5370    4.4270 C   0  0  2  0  0  0  0  0  0  0  0  0
   16.3390   16.2970    5.7730 C   0  0  2  0  0  0  0  0  0  0  0  0
   17.4200   17.3970    5.6730 C   0  0  0  0  0  0  0  0  0  0  0  0
   16.5850   15.4250    7.0060 C   0  0  0  0  0  0  0  0  0  0  0  0
   15.1980   14.4040    4.2620 C   0  0  0  0  0  0  0  0  0  0  0  0
   13.7190   14.8350    4.2560 C   0  0  0  0  0  0  0  0  0  0  0  0
   12.7790   13.6320    4.1480 C   0  0  0  0  0  0  0  0  0  0  0  0
   13.1070   12.7610    2.9410 C   0  0  0  0  0  0  0  0  0  0  0  0
   14.5660   12.3170    2.9560 C   0  0  0  0  0  0  0  0  0  0  0  0
   15.5130   13.5110    3.0480 C   0  0  0  0  0  0  0  0  0  0  0  0
   20.1040   18.3342    6.0730 H   0  0  0  0  0  0  0  0  0  0  0  0
   20.6754   17.6253    4.5246 H   0  0  0  0  0  0  0  0  0  0  0  0
   19.3335   18.8195    4.5246 H   0  0  0  0  0  0  0  0  0  0  0  0
   19.1474   16.1569    5.9951 H   0  0  0  0  0  0  0  0  0  0  0  0
   18.3561   16.7784    3.1090 H   0  0  0  0  0  0  0  0  0  0  0  0
   19.6173   15.6226    3.6563 H   0  0  0  0  0  0  0  0  0  0  0  0
   17.5363   14.5187    3.1611 H   0  0  0  0  0  0  0  0  0  0  0  0
   17.9191   14.4138    4.8306 H   0  0  0  0  0  0  0  0  0  0  0  0
   15.8643   16.3071    3.7416 H   0  0  0  0  0  0  0  0  0  0  0  0
   15.3411   16.7315    5.9326 H   0  0  0  0  0  0  0  0  0  0  0  0
   17.0866   18.1526    4.9464 H   0  0  0  0  0  0  0  0  0  0  0  0
   17.5498   17.8266    6.6773 H   0  0  0  0  0  0  0  0  0  0  0  0
   16.4170   16.0204    7.9156 H   0  0  0  0  0  0  0  0  0  0  0  0
   15.8930   14.5700    6.9944 H   0  0  0  0  0  0  0  0  0  0  0  0
   17.6218   15.0577    6.9944 H   0  0  0  0  0  0  0  0  0  0  0  0
   15.3056   13.8236    5.1902 H   0  0  0  0  0  0  0  0  0  0  0  0
   13.5013   15.3748    5.1894 H   0  0  0  0  0  0  0  0  0  0  0  0
   13.5532   15.4793    3.3800 H   0  0  0  0  0  0  0  0  0  0  0  0
   12.8722   13.0248    5.0605 H   0  0  0  0  0  0  0  0  0  0  0  0
   11.7534   14.0106    4.0266 H   0  0  0  0  0  0  0  0  0  0  0  0
   12.4616   11.8704    2.9562 H   0  0  0  0  0  0  0  0  0  0  0  0
   12.9342   13.3524    2.0298 H   0  0  0  0  0  0  0  0  0  0  0  0
   14.7314   11.6618    3.8240 H   0  0  0  0  0  0  0  0  0  0  0  0
   14.7740   11.7829    2.0171 H   0  0  0  0  0  0  0  0  0  0  0  0
   16.5447   13.1401    3.1380 H   0  0  0  0  0  0  0  0  0  0  0  0
   15.3861   14.1165    2.1385 H   0  0  0  0  0  0  0  0  0  0  0  0
  2  1  1  0
  3  2  1  0
  4  3  1  0
  5  4  1  0
  6  5  1  0
  7  6  1  0
  7  2  1  0
  8  6  1  0
  9  5  1  0
 10  9  1  0
 11 10  1  0
 12 11  1  0
 13 12  1  0
 14 13  1  0
 14  9  1  0
  1 15  1  0
  1 16  1  0
  1 17  1  0
  2 18  1  1
  3 19  1  0
  3 20  1  0
  4 21  1  0
  4 22  1  0
  5 23  1  6
  6 24  1  1
  7 25  1  0
  7 26  1  0
  8 27  1  0
  8 28  1  0
  8 29  1  0
  9 30  1  0
 10 31  1  0
 10 32  1  0
 11 33  1  0
 11 34  1  0
 12 35  1  0
 12 36  1  0
 13 37  1  0
 13 38  1  0
 14 39  1  0
 14 40  1  0
M  CHG  1   4   1
M  END
$$$$
=
     RDKit          3D

 26 27  0  0  0  0  0  0  0  0999 V2000
   18.4040   15.2620    5.6060 C   0  0  1  0  0  0  0  0  0  0  0  0
   17.3210   15.9440    6.4480 C   0  0  0  0  0  0  0  0  0  0  0  0
   15.9160   15.5060    6.0400 C   0  0  0  0  0  0  0  0  0  0  0  0
   15.6760   15.7180    4.5480 C   0  0  0  0  0  0  0  0  0  0  0  0
   16.7440   15.0340    3.7090 C   0  0  0  0  0  0  0  0  0  0  0  0
   18.0830   15.5010    4.1440 N   0  0  0  0  0  4  0  0  0  0  0  0
   22.6180   17.8710    5.8670 C   0  0  0  0  0  0  0  0  0  0  0  0
   21.5090   16.9120    6.0180 C   0  0  0  0  0  0  0  0  0  0  0  0
   21.6840   15.9060    6.9260 O   0  0  0  0  0  0  0  0  0  0  0  0
   20.5170   15.1340    6.8950 N   0  0  0  0  0  0  0  0  0  0  0  0
   19.7750   15.7510    5.9640 C   0  0  0  0  0  0  0  0  0  0  0  0
   20.3420   16.8640    5.4100 N   0  0  0  0  0  0  0  0  0  0  0  0
   18.4087   14.1812    5.8108 H   0  0  0  0  0  0  0  0  0  0  0  0
   17.4796   15.6870    7.5057 H   0  0  0  0  0  0  0  0  0  0  0  0
   17.3984   17.0291    6.2853 H   0  0  0  0  0  0  0  0  0  0  0  0
   15.7923   14.4383    6.2739 H   0  0  0  0  0  0  0  0  0  0  0  0
   15.1889   16.1153    6.5968 H   0  0  0  0  0  0  0  0  0  0  0  0
   14.6925   15.3035    4.2817 H   0  0  0  0  0  0  0  0  0  0  0  0
   15.7146   16.7979    4.3423 H   0  0  0  0  0  0  0  0  0  0  0  0
   16.6738   13.9443    3.8420 H   0  0  0  0  0  0  0  0  0  0  0  0
   16.5940   15.2822    2.6479 H   0  0  0  0  0  0  0  0  0  0  0  0
   18.7909   15.0119    3.5778 H   0  0  0  0  0  0  0  0  0  0  0  0
   18.0869   16.5226    4.0129 H   0  0  0  0  0  0  0  0  0  0  0  0
   22.9743   18.1791    6.8611 H   0  0  0  0  0  0  0  0  0  0  0  0
   23.4412   17.3955    5.3136 H   0  0  0  0  0  0  0  0  0  0  0  0
   22.2662   18.7542    5.3136 H   0  0  0  0  0  0  0  0  0  0  0  0
  2  1  1  0
  3  2  1  0
  4  3  1  0
  5  4  1  0
  6  5  1  0
  6  1  1  0
  8  7  1  0
  9  8  1  0
 10  9  1  0
 11 10  2  0
 11  1  1  0
 12 11  1  0
 12  8  2  0
  1 13  1  6
  2 14  1  0
  2 15  1  0
  3 16  1  0
  3 17  1  0
  4 18  1  0
  4 19  1  0
  5 20  1  0
  5 21  1  0
  6 22  1  0
  6 23  1  0
  7 24  1  0
  7 25  1  0
  7 26  1  0
M  CHG  1   6   1
M  END
$$$$
=
     RDKit          3D

 42 43  0  0  0  0  0  0  0  0999 V2000
   25.6840   25.8660   15.2510 C   0  0  2  0  0  0  0  0  0  0  0  0
   24.3470   26.6190   15.4220 C   0  0  0  0  0  0  0  0  0  0  0  0
   24.6360   27.7430   16.3750 N   0  0  0  0  0  4  0  0  0  0  0  0
   26.1060   27.7390   16.6620 C   0  0  0  0  0  0  0  0  0  0  0  0
   26.7310   26.9610   15.5010 C   0  0  1  0  0  0  0  0  0  0  0  0
   28.1510   26.5400   15.8080 C   0  0  0  0  0  0  0  0  0  0  0  0
   28.5050   25.6320   16.8150 C   0  0  0  0  0  0  0  0  0  0  0  0
   29.8460   25.2930   17.0250 C   0  0  0  0  0  0  0  0  0  0  0  0
   30.8510   25.8490   16.2340 C   0  0  0  0  0  0  0  0  0  0  0  0
   30.5180   26.7490   15.2270 C   0  0  0  0  0  0  0  0  0  0  0  0
   29.1840   27.0820   15.0260 C   0  0  0  0  0  0  0  0  0  0  0  0
   28.8730   27.9570   14.0570 F   0  0  0  0  0  0  0  0  0  0  0  0
   26.3510   23.1950   14.8010 O   0  0  0  0  0  0  0  0  0  0  0  0
   26.2820   23.9520   13.8460 C   0  0  0  0  0  0  0  0  0  0  0  0
   25.8320   25.2380   13.9500 N   0  0  0  0  0  0  0  0  0  0  0  0
   26.6160   23.7010   12.5690 O   0  0  0  0  0  0  0  0  0  0  0  0
   27.9460   24.0140   12.0710 C   0  0  0  0  0  0  0  0  0  0  0  0
   27.9750   25.3900   11.3990 C   0  0  0  0  0  0  0  0  0  0  0  0
   28.2300   22.9400   11.0110 C   0  0  0  0  0  0  0  0  0  0  0  0
   28.9940   23.8980   13.1830 C   0  0  0  0  0  0  0  0  0  0  0  0
   25.7751   25.0141   15.9409 H   0  0  0  0  0  0  0  0  0  0  0  0
   24.0025   27.0143   14.4550 H   0  0  0  0  0  0  0  0  0  0  0  0
   23.5531   25.9583   15.8004 H   0  0  0  0  0  0  0  0  0  0  0  0
   24.3653   28.6409   15.9491 H   0  0  0  0  0  0  0  0  0  0  0  0
   24.1007   27.6203   17.2464 H   0  0  0  0  0  0  0  0  0  0  0  0
   26.4970   28.7667   16.6943 H   0  0  0  0  0  0  0  0  0  0  0  0
   26.3367   27.2849   17.6370 H   0  0  0  0  0  0  0  0  0  0  0  0
   26.9070   27.5232   14.5721 H   0  0  0  0  0  0  0  0  0  0  0  0
   27.7230   25.1827   17.4447 H   0  0  0  0  0  0  0  0  0  0  0  0
   30.1100   24.5815   17.8212 H   0  0  0  0  0  0  0  0  0  0  0  0
   31.9029   25.5769   16.4057 H   0  0  0  0  0  0  0  0  0  0  0  0
   31.3026   27.1925   14.5963 H   0  0  0  0  0  0  0  0  0  0  0  0
   25.5957   25.7666   13.0982 H   0  0  0  0  0  0  0  0  0  0  0  0
   27.9915   26.1743   12.1701 H   0  0  0  0  0  0  0  0  0  0  0  0
   28.8751   25.4730   10.7722 H   0  0  0  0  0  0  0  0  0  0  0  0
   27.0792   25.5109   10.7722 H   0  0  0  0  0  0  0  0  0  0  0  0
   28.4808   21.9914   11.5082 H   0  0  0  0  0  0  0  0  0  0  0  0
   27.3380   22.8000   10.3827 H   0  0  0  0  0  0  0  0  0  0  0  0
   29.0746   23.2592   10.3827 H   0  0  0  0  0  0  0  0  0  0  0  0
   28.4968   23.9530   14.1627 H   0  0  0  0  0  0  0  0  0  0  0  0
   29.5199   22.9362   13.0923 H   0  0  0  0  0  0  0  0  0  0  0  0
   29.7176   24.7215   13.0923 H   0  0  0  0  0  0  0  0  0  0  0  0
  2  1  1  0
  3  2  1  0
  4  3  1  0
  5  1  1  0
  5  4  1  0
  6  5  1  0
  7  6  2  0
  8  7  1  0
  9  8  2  0
 10  9  1  0
 11 10  2  0
 11  6  1  0
 12 11  1  0
 14 13  2  0
 15 14  1  0
 15  1  1  0
 16 14  1  0
 17 16  1  0
 18 17  1  0
 19 17  1  0
 20 17  1  0
  1 21  1  1
  2 22  1  0
  2 23  1  0
  3 24  1  0
  3 25  1  0
  4 26  1  0
  4 27  1  0
  5 28  1  6
  7 29  1  0
  8 30  1  0
  9 31  1  0
 10 32  1  0
 15 33  1  0
 18 34  1  0
 18 35  1  0
 18 36  1  0
 19 37  1  0
 19 38  1  0
 19 39  1  0
 20 40  1  0
 20 41  1  0
 20 42  1  0
M  CHG  1   3   1
M  END
$$$$
=
     RDKit          3D

 25 25  0  0  0  0  0  0  0  0999 V2000
   19.6140   17.5270    5.3690 C   0  0  0  0  0  0  0  0  0  0  0  0
   20.7650   16.5600    5.0230 C   0  0  1  0  0  0  0  0  0  0  0  0
   21.8670   16.5420    6.0690 C   0  0  0  0  0  0  0  0  0  0  0  0
   21.3210   15.7850    7.1520 O   0  0  0  0  0  0  0  0  0  0  0  0
   20.4560   14.7820    6.5900 C   0  0  0  0  0  0  0  0  0  0  0  0
   20.2960   15.1150    5.1140 C   0  0  0  0  0  0  0  0  0  0  0  0
   18.2690   17.0780    4.8090 C   0  0  0  0  0  0  0  0  0  0  0  0
   16.8000   15.9250    6.4800 C   0  0  0  0  0  0  0  0  0  0  0  0
   17.2320   17.2160    5.8800 N   0  0  0  0  0  4  0  0  0  0  0  0
   19.5321   17.5967    6.4637 H   0  0  0  0  0  0  0  0  0  0  0  0
   19.8525   18.4987    4.9119 H   0  0  0  0  0  0  0  0  0  0  0  0
   21.1002   16.9007    4.0323 H   0  0  0  0  0  0  0  0  0  0  0  0
   22.7712   16.0569    5.6727 H   0  0  0  0  0  0  0  0  0  0  0  0
   22.1681   17.5543    6.3765 H   0  0  0  0  0  0  0  0  0  0  0  0
   20.9065   13.7853    6.7065 H   0  0  0  0  0  0  0  0  0  0  0  0
   19.4813   14.7714    7.0997 H   0  0  0  0  0  0  0  0  0  0  0  0
   20.9226   14.4584    4.4926 H   0  0  0  0  0  0  0  0  0  0  0  0
   19.2666   14.9751    4.7523 H   0  0  0  0  0  0  0  0  0  0  0  0
   17.9980   17.7071    3.9483 H   0  0  0  0  0  0  0  0  0  0  0  0
   18.3311   16.0300    4.4808 H   0  0  0  0  0  0  0  0  0  0  0  0
   16.8263   16.0035    7.5769 H   0  0  0  0  0  0  0  0  0  0  0  0
   15.7754   15.6935    6.1534 H   0  0  0  0  0  0  0  0  0  0  0  0
   17.4789   15.1235    6.1534 H   0  0  0  0  0  0  0  0  0  0  0  0
   16.4053   17.6753    5.4720 H   0  0  0  0  0  0  0  0  0  0  0  0
   17.6605   17.7662    6.6380 H   0  0  0  0  0  0  0  0  0  0  0  0
  2  1  1  0
  3  2  1  0
  4  3  1  0
  5  4  1  0
  6  5  1  0
  6  2  1  0
  7  1  1  0
  9  8  1  0
  9  7  1  0
  1 10  1  0
  1 11  1  0
  2 12  1  6
  3 13  1  0
  3 14  1  0
  5 15  1  0
  5 16  1  0
  6 17  1  0
  6 18  1  0
  7 19  1  0
  7 20  1  0
  8 21  1  0
  8 22  1  0
  8 23  1  0
  9 24  1  0
  9 25  1  0
M  CHG  1   9   1
M  END
$$$$
=
     RDKit          3D

 51 54  0  0  0  0  0  0  0  0999 V2000
   27.0780   25.1120   12.8880 C   0  0  2  0  0  0  0  0  0  0  0  0
   26.1890   25.4560   14.0950 C   0  0  2  0  0  0  0  0  0  0  0  0
   25.7390   25.8240   12.7070 C   0  0  2  0  0  0  0  0  0  0  0  0
   26.6820   26.4700   15.1050 C   0  0  0  0  0  0  0  0  0  0  0  0
   26.2360   27.8150   15.0070 C   0  0  0  0  0  0  0  0  0  0  0  0
   26.6310   28.7990   15.9200 C   0  0  0  0  0  0  0  0  0  0  0  0
   27.4910   28.4240   16.9250 C   0  0  0  0  0  0  0  0  0  0  0  0
   27.9560   27.1380   17.0290 C   0  0  0  0  0  0  0  0  0  0  0  0
   27.5800   26.1510   16.1390 C   0  0  0  0  0  0  0  0  0  0  0  0
   28.7970   26.9740   18.0840 O   0  0  0  0  0  0  0  0  0  0  0  0
   28.8570   28.3240   18.5990 C   0  0  0  0  0  0  0  0  0  0  0  0
   27.9790   29.2330   17.9000 O   0  0  0  0  0  0  0  0  0  0  0  0
   24.4200   24.8020   11.9830 S   0  0  0  0  0  6  0  0  0  0  0  0
   24.1790   23.6870   12.8720 O   0  0  0  0  0  0  0  0  0  0  0  0
   24.8500   24.6070   10.6140 O   0  0  0  0  0  0  0  0  0  0  0  0
   23.0090   25.8620   12.0130 C   0  0  0  0  0  0  0  0  0  0  0  0
   22.9800   26.9650   12.8670 C   0  0  0  0  0  0  0  0  0  0  0  0
   21.8500   27.7830   12.8890 C   0  0  0  0  0  0  0  0  0  0  0  0
   20.7500   27.5000   12.0670 C   0  0  0  0  0  0  0  0  0  0  0  0
   20.8080   26.4040   11.1950 C   0  0  0  0  0  0  0  0  0  0  0  0
   21.9340   25.5810   11.1670 C   0  0  0  0  0  0  0  0  0  0  0  0
   19.5540   28.4090   12.0630 C   0  0  0  0  0  0  0  0  0  0  0  0
   27.2610   23.6320   12.5800 C   0  0  0  0  0  0  0  0  0  0  0  0
   28.6010   22.5630   10.9620 C   0  0  0  0  0  0  0  0  0  0  0  0
   28.5980   23.4610   12.0770 O   0  0  0  0  0  0  0  0  0  0  0  0
   28.2870   25.9390   12.5150 C   0  0  0  0  0  0  0  0  0  0  0  0
   28.3740   26.2360   11.0700 N   0  0  0  0  0  4  0  0  0  0  0  0
   25.7095   24.9082   14.9196 H   0  0  0  0  0  0  0  0  0  0  0  0
   25.4075   26.7602   12.2341 H   0  0  0  0  0  0  0  0  0  0  0  0
   25.5578   28.0921   14.1864 H   0  0  0  0  0  0  0  0  0  0  0  0
   26.2671   29.8337   15.8368 H   0  0  0  0  0  0  0  0  0  0  0  0
   27.9773   25.1300   16.2376 H   0  0  0  0  0  0  0  0  0  0  0  0
   28.5711   28.3073   19.6611 H   0  0  0  0  0  0  0  0  0  0  0  0
   29.8862   28.6854   18.4571 H   0  0  0  0  0  0  0  0  0  0  0  0
   23.8395   27.1874   13.5165 H   0  0  0  0  0  0  0  0  0  0  0  0
   21.8219   28.6569   13.5565 H   0  0  0  0  0  0  0  0  0  0  0  0
   19.9595   26.1914   10.5280 H   0  0  0  0  0  0  0  0  0  0  0  0
   21.9748   24.7189   10.4850 H   0  0  0  0  0  0  0  0  0  0  0  0
   19.2599   28.6325   13.0991 H   0  0  0  0  0  0  0  0  0  0  0  0
   19.8066   29.3451   11.5435 H   0  0  0  0  0  0  0  0  0  0  0  0
   18.7197   27.9150   11.5435 H   0  0  0  0  0  0  0  0  0  0  0  0
   27.1244   23.0375   13.4954 H   0  0  0  0  0  0  0  0  0  0  0  0
   26.5207   23.2942   11.8399 H   0  0  0  0  0  0  0  0  0  0  0  0
   28.6045   21.5253   11.3270 H   0  0  0  0  0  0  0  0  0  0  0  0
   27.7023   22.7339   10.3512 H   0  0  0  0  0  0  0  0  0  0  0  0
   29.4986   22.7399   10.3512 H   0  0  0  0  0  0  0  0  0  0  0  0
   28.2407   26.8910   13.0641 H   0  0  0  0  0  0  0  0  0  0  0  0
   29.1770   25.3487   12.7785 H   0  0  0  0  0  0  0  0  0  0  0  0
   28.6611   27.2163   10.9377 H   0  0  0  0  0  0  0  0  0  0  0  0
   29.0678   25.6130   10.6326 H   0  0  0  0  0  0  0  0  0  0  0  0
   27.4537   26.0858   10.6326 H   0  0  0  0  0  0  0  0  0  0  0  0
  2  1  1  0
  3  2  1  0
  3  1  1  0
  4  2  1  0
  5  4  2  0
  6  5  1  0
  7  6  2  0
  8  7  1  0
  9  4  1  0
  9  8  2  0
 10  8  1  0
 11 10  1  0
 12 11  1  0
 12  7  1  0
 13  3  1  0
 14 13  2  0
 15 13  2  0
 16 13  1  0
 17 16  2  0
 18 17  1  0
 19 18  2  0
 20 19  1  0
 21 20  2  0
 21 16  1  0
 22 19  1  0
  1 23  1  6
 25 24  1  0
 25 23  1  0
 26  1  1  0
 27 26  1  0
  2 28  1  1
  3 29  1  1
  5 30  1  0
  6 31  1  0
  9 32  1  0
 11 33  1  0
 11 34  1  0
 17 35  1  0
 18 36  1  0
 20 37  1  0
 21 38  1  0
 22 39  1  0
 22 40  1  0
 22 41  1  0
 23 42  1  0
 23 43  1  0
 24 44  1  0
 24 45  1  0
 24 46  1  0
 26 47  1  0
 26 48  1  0
 27 49  1  0
 27 50  1  0
 27 51  1  0
M  CHG  1  27   1
M  END
$$$$
=
     RDKit          3D

 36 38  0  0  0  0  0  0  0  0999 V2000
   16.3460   13.5930    3.4170 C   0  0  0  0  0  0  0  0  0  0  0  0
   17.1000   12.5910    2.8430 C   0  0  0  0  0  0  0  0  0  0  0  0
   18.4060   12.9840    2.9720 N   0  0  0  0  0  0  0  0  0  0  0  0
   18.4030   14.1960    3.6140 C   0  0  0  0  0  0  0  0  0  0  0  0
   17.1750   14.5860    3.9000 N   0  0  0  0  0  0  0  0  0  0  0  0
   19.6150   14.9930    3.9330 C   0  0  2  0  0  0  0  0  0  0  0  0
   19.6060   15.5850    5.3360 C   0  0  0  0  0  0  0  0  0  0  0  0
   20.4030   16.8670    5.1800 C   0  0  0  0  0  0  0  0  0  0  0  0
   19.9080   17.4220    3.8610 C   0  0  0  0  0  0  0  0  0  0  0  0
   19.6410   16.2120    3.0390 N   0  0  0  0  0  4  0  0  0  0  0  0
   12.7300   12.6760    2.9450 C   0  0  0  0  0  0  0  0  0  0  0  0
   12.1010   13.6570    3.7120 C   0  0  0  0  0  0  0  0  0  0  0  0
   12.8500   14.6220    4.3800 C   0  0  0  0  0  0  0  0  0  0  0  0
   14.2420   14.6110    4.2870 C   0  0  0  0  0  0  0  0  0  0  0  0
   14.8950   13.6320    3.5240 C   0  0  0  0  0  0  0  0  0  0  0  0
   14.1240   12.6640    2.8570 C   0  0  0  0  0  0  0  0  0  0  0  0
   10.4990   12.1420    2.3080 C   0  0  0  0  0  0  0  0  0  0  0  0
   11.8760   11.7930    2.3420 O   0  0  0  0  0  0  0  0  0  0  0  0
   16.7289   11.6661    2.3772 H   0  0  0  0  0  0  0  0  0  0  0  0
   19.2351   12.4661    2.6475 H   0  0  0  0  0  0  0  0  0  0  0  0
   20.4612   14.3007    3.8118 H   0  0  0  0  0  0  0  0  0  0  0  0
   18.5788   15.7976    5.6673 H   0  0  0  0  0  0  0  0  0  0  0  0
   20.0271   14.9060    6.0921 H   0  0  0  0  0  0  0  0  0  0  0  0
   20.1944   17.5643    6.0048 H   0  0  0  0  0  0  0  0  0  0  0  0
   21.4908   16.7045    5.1993 H   0  0  0  0  0  0  0  0  0  0  0  0
   18.9883   18.0083    4.0040 H   0  0  0  0  0  0  0  0  0  0  0  0
   20.6322   18.1026    3.3896 H   0  0  0  0  0  0  0  0  0  0  0  0
   20.3839   16.1050    2.3336 H   0  0  0  0  0  0  0  0  0  0  0  0
   18.7313   16.3112    2.5662 H   0  0  0  0  0  0  0  0  0  0  0  0
   11.0038   13.6682    3.7897 H   0  0  0  0  0  0  0  0  0  0  0  0
   12.3446   15.3926    4.9807 H   0  0  0  0  0  0  0  0  0  0  0  0
   14.8311   15.3750    4.8155 H   0  0  0  0  0  0  0  0  0  0  0  0
   14.6243   11.8881    2.2589 H   0  0  0  0  0  0  0  0  0  0  0  0
   10.1196   12.2382    3.3360 H   0  0  0  0  0  0  0  0  0  0  0  0
   10.3764   13.0996    1.7808 H   0  0  0  0  0  0  0  0  0  0  0  0
    9.9350   11.3584    1.7808 H   0  0  0  0  0  0  0  0  0  0  0  0
  2  1  2  0
  3  2  1  0
  4  3  1  0
  5  1  1  0
  5  4  2  0
  6  4  1  0
  7  6  1  0
  8  7  1  0
  9  8  1  0
 10  6  1  0
 10  9  1  0
 12 11  2  0
 13 12  1  0
 14 13  2  0
 15 14  1  0
 15  1  1  0
 16 15  2  0
 16 11  1  0
 18 17  1  0
 18 11  1  0
  2 19  1  0
  3 20  1  0
  6 21  1  1
  7 22  1  0
  7 23  1  0
  8 24  1  0
  8 25  1  0
  9 26  1  0
  9 27  1  0
 10 28  1  0
 10 29  1  0
 12 30  1  0
 13 31  1  0
 14 32  1  0
 16 33  1  0
 17 34  1  0
 17 35  1  0
 17 36  1  0
M  CHG  1  10   1
M  END
$$$$
=
     RDKit          3D

 24 24  0  0  0  0  0  0  0  0999 V2000
   13.4720   13.9410    4.4300 C   0  0  0  0  0  0  0  0  0  0  0  0
   18.4000   15.8470    3.6520 C   0  0  0  0  0  0  0  0  0  0  0  0
   17.0790   15.4930    4.2450 C   0  0  0  0  0  0  0  0  0  0  0  0
   16.6000   15.7810    5.5050 C   0  0  0  0  0  0  0  0  0  0  0  0
   15.2880   15.2690    5.7170 C   0  0  0  0  0  0  0  0  0  0  0  0
   14.8000   14.6130    4.6070 C   0  0  0  0  0  0  0  0  0  0  0  0
   15.9410   14.6060    3.3280 S   0  0  0  0  0  0  0  0  0  0  0  0
   13.4900   12.8900    3.3070 C   0  0  2  0  0  0  0  0  0  0  0  0
   12.1250   12.6740    2.6630 C   0  0  0  0  0  0  0  0  0  0  0  0
   13.9330   11.5760    3.8770 N   0  0  0  0  0  4  0  0  0  0  0  0
   13.1988   13.4452    5.3731 H   0  0  0  0  0  0  0  0  0  0  0  0
   12.7399   14.7140    4.1533 H   0  0  0  0  0  0  0  0  0  0  0  0
   19.1234   16.0409    4.4576 H   0  0  0  0  0  0  0  0  0  0  0  0
   18.7582   15.0131    3.0304 H   0  0  0  0  0  0  0  0  0  0  0  0
   18.2932   16.7482    3.0304 H   0  0  0  0  0  0  0  0  0  0  0  0
   17.1672   16.3430    6.2616 H   0  0  0  0  0  0  0  0  0  0  0  0
   14.7289   15.3837    6.6573 H   0  0  0  0  0  0  0  0  0  0  0  0
   14.1768   13.2661    2.5344 H   0  0  0  0  0  0  0  0  0  0  0  0
   11.3641   12.5536    3.4482 H   0  0  0  0  0  0  0  0  0  0  0  0
   11.8727   13.5434    2.0381 H   0  0  0  0  0  0  0  0  0  0  0  0
   12.1534   11.7692    2.0381 H   0  0  0  0  0  0  0  0  0  0  0  0
   13.9165   11.6249    4.9057 H   0  0  0  0  0  0  0  0  0  0  0  0
   13.2965   10.8315    3.5584 H   0  0  0  0  0  0  0  0  0  0  0  0
   14.8903   11.3688    3.5584 H   0  0  0  0  0  0  0  0  0  0  0  0
  3  2  1  0
  4  3  2  0
  5  4  1  0
  6  1  1  0
  6  5  2  0
  7  6  1  0
  7  3  1  0
  8  1  1  0
  9  8  1  0
 10  8  1  0
  1 11  1  0
  1 12  1  0
  2 13  1  0
  2 14  1  0
  2 15  1  0
  4 16  1  0
  5 17  1  0
  8 18  1  6
  9 19  1  0
  9 20  1  0
  9 21  1  0
 10 22  1  0
 10 23  1  0
 10 24  1  0
M  CHG  1  10   1
M  END
$$$$
=
     RDKit          3D

 23 24  0  0  0  0  0  0  0  0999 V2000
   20.3530   16.5170    4.1340 C   0  0  0  0  0  0  0  0  0  0  0  0
   20.6950   15.4220    5.1220 C   0  0  0  0  0  0  0  0  0  0  0  0
   19.5180   14.6100    5.1990 O   0  0  0  0  0  0  0  0  0  0  0  0
   18.8860   14.7020    3.9240 C   0  0  2  0  0  0  0  0  0  0  0  0
   19.4830   15.8200    3.1510 N   0  0  0  0  0  4  0  0  0  0  0  0
   17.3910   14.8740    4.0520 C   0  0  0  0  0  0  0  0  0  0  0  0
   16.8740   15.8620    4.9090 C   0  0  0  0  0  0  0  0  0  0  0  0
   15.4960   15.9990    5.0850 C   0  0  0  0  0  0  0  0  0  0  0  0
   14.6180   15.1520    4.4120 C   0  0  0  0  0  0  0  0  0  0  0  0
   15.1150   14.1690    3.5610 C   0  0  0  0  0  0  0  0  0  0  0  0
   16.4920   14.0270    3.3830 C   0  0  0  0  0  0  0  0  0  0  0  0
   19.8133   17.3394    4.6263 H   0  0  0  0  0  0  0  0  0  0  0  0
   21.2394   16.9806    3.6764 H   0  0  0  0  0  0  0  0  0  0  0  0
   21.5498   14.8303    4.7625 H   0  0  0  0  0  0  0  0  0  0  0  0
   20.9821   15.8268    6.1037 H   0  0  0  0  0  0  0  0  0  0  0  0
   19.0560   13.7582    3.3852 H   0  0  0  0  0  0  0  0  0  0  0  0
   20.0381   15.4624    2.3605 H   0  0  0  0  0  0  0  0  0  0  0  0
   18.7712   16.4422    2.7423 H   0  0  0  0  0  0  0  0  0  0  0  0
   17.5615   16.5326    5.4453 H   0  0  0  0  0  0  0  0  0  0  0  0
   15.1027   16.7768    5.7560 H   0  0  0  0  0  0  0  0  0  0  0  0
   13.5325   15.2601    4.5531 H   0  0  0  0  0  0  0  0  0  0  0  0
   14.4210   13.5027    3.0277 H   0  0  0  0  0  0  0  0  0  0  0  0
   16.8769   13.2445    2.7125 H   0  0  0  0  0  0  0  0  0  0  0  0
  2  1  1  0
  3  2  1  0
  4  3  1  0
  5  4  1  0
  5  1  1  0
  6  4  1  0
  7  6  2  0
  8  7  1  0
  9  8  2  0
 10  9  1  0
 11 10  2  0
 11  6  1  0
  1 12  1  0
  1 13  1  0
  2 14  1  0
  2 15  1  0
  4 16  1  6
  5 17  1  0
  5 18  1  0
  7 19  1  0
  8 20  1  0
  9 21  1  0
 10 22  1  0
 11 23  1  0
M  CHG  1   5   1
M  END
$$$$
=
     RDKit          3D

 28 29  0  0  0  0  0  0  0  0999 V2000
   19.1810   16.0310    3.7620 S   0  0  0  0  0  6  0  0  0  0  0  0
   19.0760   16.9860    2.6790 O   0  0  0  0  0  0  0  0  0  0  0  0
   19.9250   14.7970    3.6170 O   0  0  0  0  0  0  0  0  0  0  0  0
   17.5730   15.6700    4.3930 C   0  0  0  0  0  0  0  0  0  0  0  0
   16.6100   15.0990    3.5590 C   0  0  0  0  0  0  0  0  0  0  0  0
   15.3420   14.8190    4.0710 C   0  0  0  0  0  0  0  0  0  0  0  0
   15.0480   15.1030    5.4050 C   0  0  0  0  0  0  0  0  0  0  0  0
   16.0200   15.6600    6.2380 C   0  0  0  0  0  0  0  0  0  0  0  0
   17.2900   15.9430    5.7350 C   0  0  0  0  0  0  0  0  0  0  0  0
   21.4490   17.1950    4.8060 C   0  0  1  0  0  0  0  0  0  0  0  0
   21.0210   16.2720    5.9240 C   0  0  0  0  0  0  0  0  0  0  0  0
   19.9760   16.9840    5.1030 C   0  0  2  0  0  0  0  0  0  0  0  0
   22.0770   18.5160    5.0620 C   0  0  0  0  0  0  0  0  0  0  0  0
   23.2690   18.4080    5.9310 N   0  0  0  0  0  4  0  0  0  0  0  0
   16.8480   14.8721    2.5093 H   0  0  0  0  0  0  0  0  0  0  0  0
   14.5735   14.3739    3.4219 H   0  0  0  0  0  0  0  0  0  0  0  0
   14.0453   14.8869    5.8024 H   0  0  0  0  0  0  0  0  0  0  0  0
   15.7845   15.8757    7.2906 H   0  0  0  0  0  0  0  0  0  0  0  0
   18.0617   16.3769    6.3879 H   0  0  0  0  0  0  0  0  0  0  0  0
   22.1057   17.0844    3.9305 H   0  0  0  0  0  0  0  0  0  0  0  0
   21.1543   15.1851    5.8200 H   0  0  0  0  0  0  0  0  0  0  0  0
   21.2461   16.1982    6.9982 H   0  0  0  0  0  0  0  0  0  0  0  0
   19.1015   17.5923    5.3771 H   0  0  0  0  0  0  0  0  0  0  0  0
   22.3782   18.9575    4.1006 H   0  0  0  0  0  0  0  0  0  0  0  0
   21.3385   19.1471    5.5780 H   0  0  0  0  0  0  0  0  0  0  0  0
   22.9775   18.4344    6.9185 H   0  0  0  0  0  0  0  0  0  0  0  0
   23.7539   17.5196    5.7398 H   0  0  0  0  0  0  0  0  0  0  0  0
   23.9057   19.1947    5.7398 H   0  0  0  0  0  0  0  0  0  0  0  0
  2  1  2  0
  3  1  2  0
  4  1  1  0
  5  4  2  0
  6  5  1  0
  7  6  2  0
  8  7  1  0
  9  8  2  0
  9  4  1  0
 11 10  1  0
 12  1  1  0
 12 11  1  0
 12 10  1  0
 13 10  1  0
 14 13  1  0
  5 15  1  0
  6 16  1  0
  7 17  1  0
  8 18  1  0
  9 19  1  0
 10 20  1  6
 11 21  1  0
 11 22  1  0
 12 23  1  1
 13 24  1  0
 13 25  1  0
 14 26  1  0
 14 27  1  0
 14 28  1  0
M  CHG  1  14   1
M  END
$$$$
=
     RDKit          3D

 31 31  0  0  0  0  0  0  0  0999 V2000
   18.3860   17.1390    4.7610 N   0  0  0  0  0  4  0  0  0  0  0  0
   19.8150   16.8730    5.1340 C   0  0  0  0  0  0  0  0  0  0  0  0
   20.3430   15.4990    4.6470 C   0  0  0  0  0  0  0  0  0  0  0  0
   19.5790   14.9670    3.4800 N   0  0  0  0  0  4  0  0  0  0  0  0
   17.3710   17.1010    5.8610 C   0  0  0  0  0  0  0  0  0  0  0  0
   16.2250   16.2370    5.4720 C   0  0  0  0  0  0  0  0  0  0  0  0
   16.2260   15.4390    4.3910 C   0  0  0  0  0  0  0  0  0  0  0  0
   15.1090   14.5510    4.0330 C   0  0  0  0  0  0  0  0  0  0  0  0
   13.7850   14.8170    4.4090 C   0  0  0  0  0  0  0  0  0  0  0  0
   12.7510   13.9610    4.0200 C   0  0  0  0  0  0  0  0  0  0  0  0
   13.0290   12.8370    3.2460 C   0  0  0  0  0  0  0  0  0  0  0  0
   14.3380   12.5710    2.8540 C   0  0  0  0  0  0  0  0  0  0  0  0
   15.3730   13.4250    3.2400 C   0  0  0  0  0  0  0  0  0  0  0  0
   18.3465   18.0763    4.3358 H   0  0  0  0  0  0  0  0  0  0  0  0
   18.1271   16.3630    4.1352 H   0  0  0  0  0  0  0  0  0  0  0  0
   20.4415   17.6618    4.6921 H   0  0  0  0  0  0  0  0  0  0  0  0
   19.8631   16.8637    6.2329 H   0  0  0  0  0  0  0  0  0  0  0  0
   21.3977   15.6110    4.3552 H   0  0  0  0  0  0  0  0  0  0  0  0
   20.2227   14.7852    5.4752 H   0  0  0  0  0  0  0  0  0  0  0  0
   18.7803   14.4109    3.8172 H   0  0  0  0  0  0  0  0  0  0  0  0
   19.2342   15.7517    2.9088 H   0  0  0  0  0  0  0  0  0  0  0  0
   20.1954   14.3714    2.9088 H   0  0  0  0  0  0  0  0  0  0  0  0
   17.8373   16.6978    6.7720 H   0  0  0  0  0  0  0  0  0  0  0  0
   17.0046   18.1214    6.0470 H   0  0  0  0  0  0  0  0  0  0  0  0
   15.3255   16.2520    6.1050 H   0  0  0  0  0  0  0  0  0  0  0  0
   17.1108   15.4503    3.7376 H   0  0  0  0  0  0  0  0  0  0  0  0
   13.5581   15.7065    5.0150 H   0  0  0  0  0  0  0  0  0  0  0  0
   11.7162   14.1753    4.3255 H   0  0  0  0  0  0  0  0  0  0  0  0
   12.2155   12.1605    2.9449 H   0  0  0  0  0  0  0  0  0  0  0  0
   14.5575   11.6860    2.2387 H   0  0  0  0  0  0  0  0  0  0  0  0
   16.4037   13.2128    2.9195 H   0  0  0  0  0  0  0  0  0  0  0  0
  2  1  1  0
  3  2  1  0
  4  3  1  0
  5  1  1  0
  6  5  1  0
  7  6  2  0
  8  7  1  0
  9  8  2  0
 10  9  1  0
 11 10  2  0
 12 11  1  0
 13 12  2  0
 13  8  1  0
  1 14  1  0
  1 15  1  0
  2 16  1  0
  2 17  1  0
  3 18  1  0
  3 19  1  0
  4 20  1  0
  4 21  1  0
  4 22  1  0
  5 23  1  0
  5 24  1  0
  6 25  1  0
  7 26  1  0
  9 27  1  0
 10 28  1  0
 11 29  1  0
 12 30  1  0
 13 31  1  0
M  CHG  2   1   1   4   1
M  END
$$$$
=
     RDKit          3D

 32 33  0  0  0  0  0  0  0  0999 V2000
   18.9470   14.3960    4.4940 C   0  0  1  0  0  0  0  0  0  0  0  0
   22.9080   18.0910    6.1350 N   0  0  0  0  0  0  0  0  0  0  0  0
   21.9560   17.2130    5.6380 C   0  0  0  0  0  0  0  0  0  0  0  0
   21.6320   16.1920    6.4480 N   0  0  0  0  0  0  0  0  0  0  0  0
   20.6750   15.3340    6.0420 C   0  0  0  0  0  0  0  0  0  0  0  0
   20.0060   15.4220    4.8250 C   0  0  0  0  0  0  0  0  0  0  0  0
   20.3550   16.5000    4.0000 C   0  0  0  0  0  0  0  0  0  0  0  0
   21.3410   17.4120    4.4040 C   0  0  0  0  0  0  0  0  0  0  0  0
   21.6930   18.5890    3.5380 C   0  0  0  0  0  0  0  0  0  0  0  0
   17.5320   14.9350    4.4640 C   0  0  0  0  0  0  0  0  0  0  0  0
   17.1420   15.9230    5.3870 C   0  0  0  0  0  0  0  0  0  0  0  0
   15.8310   16.3990    5.4060 C   0  0  0  0  0  0  0  0  0  0  0  0
   14.8910   15.8950    4.5120 C   0  0  0  0  0  0  0  0  0  0  0  0
   15.2590   14.9150    3.5940 C   0  0  0  0  0  0  0  0  0  0  0  0
   16.5680   14.4330    3.5700 C   0  0  0  0  0  0  0  0  0  0  0  0
   19.2070   13.6500    3.2330 N   0  0  0  0  0  4  0  0  0  0  0  0
   19.0239   13.6987    5.3413 H   0  0  0  0  0  0  0  0  0  0  0  0
   23.2078   18.8990    5.5709 H   0  0  0  0  0  0  0  0  0  0  0  0
   23.3151   17.9350    7.0682 H   0  0  0  0  0  0  0  0  0  0  0  0
   20.4048   14.5092    6.7178 H   0  0  0  0  0  0  0  0  0  0  0  0
   19.8528   16.6315    3.0302 H   0  0  0  0  0  0  0  0  0  0  0  0
   21.9501   19.4486    4.1744 H   0  0  0  0  0  0  0  0  0  0  0  0
   22.5538   18.3325    2.9029 H   0  0  0  0  0  0  0  0  0  0  0  0
   20.8328   18.8472    2.9029 H   0  0  0  0  0  0  0  0  0  0  0  0
   17.8777   16.3236    6.1000 H   0  0  0  0  0  0  0  0  0  0  0  0
   15.5394   17.1747    6.1294 H   0  0  0  0  0  0  0  0  0  0  0  0
   13.8574   16.2709    4.5307 H   0  0  0  0  0  0  0  0  0  0  0  0
   14.5158   14.5198    2.8859 H   0  0  0  0  0  0  0  0  0  0  0  0
   16.8490   13.6539    2.8461 H   0  0  0  0  0  0  0  0  0  0  0  0
   19.5378   12.7008    3.4576 H   0  0  0  0  0  0  0  0  0  0  0  0
   18.3374   13.5896    2.6843 H   0  0  0  0  0  0  0  0  0  0  0  0
   19.9257   14.1432    2.6843 H   0  0  0  0  0  0  0  0  0  0  0  0
  3  2  1  0
  4  3  2  0
  5  4  1  0
  6  1  1  0
  6  5  2  0
  7  6  1  0
  8  7  2  0
  8  3  1  0
  9  8  1  0
 10  1  1  0
 11 10  2  0
 12 11  1  0
 13 12  2  0
 14 13  1  0
 15 14  2  0
 15 10  1  0
 16  1  1  0
  1 17  1  1
  2 18  1  0
  2 19  1  0
  5 20  1  0
  7 21  1  0
  9 22  1  0
  9 23  1  0
  9 24  1  0
 11 25  1  0
 12 26  1  0
 13 27  1  0
 14 28  1  0
 15 29  1  0
 16 30  1  0
 16 31  1  0
 16 32  1  0
M  CHG  1  16   1
M  END
$$$$
=
     RDKit          3D

 40 43  0  0  0  0  0  0  0  0999 V2000
   27.2940   26.4380   13.6270 C   0  0  1  0  0  0  0  0  0  0  0  0
   27.8770   27.6170   12.9220 N   0  0  0  0  0  4  0  0  0  0  0  0
   28.0790   28.8430   13.7260 C   0  0  0  0  0  0  0  0  0  0  0  0
   28.6530   28.6110   15.0940 C   0  0  0  0  0  0  0  0  0  0  0  0
   27.8910   28.0120   16.1220 C   0  0  0  0  0  0  0  0  0  0  0  0
   26.6170   27.4450   15.8330 N   0  0  0  0  0  0  0  0  0  0  0  0
   26.2560   26.8050   14.6470 C   0  0  0  0  0  0  0  0  0  0  0  0
   24.9050   26.5020   14.7430 C   0  0  0  0  0  0  0  0  0  0  0  0
   24.4560   26.8970   16.0200 C   0  0  0  0  0  0  0  0  0  0  0  0
   25.5360   27.4330   16.6810 C   0  0  0  0  0  0  0  0  0  0  0  0
   28.3810   27.9670   17.4330 C   0  0  0  0  0  0  0  0  0  0  0  0
   29.6520   28.4640   17.7160 C   0  0  0  0  0  0  0  0  0  0  0  0
   30.4300   29.0180   16.7020 C   0  0  0  0  0  0  0  0  0  0  0  0
   29.9340   29.0990   15.4000 C   0  0  0  0  0  0  0  0  0  0  0  0
   27.5730   24.2040   12.3530 C   0  0  0  0  0  0  0  0  0  0  0  0
   27.1200   23.2980   11.3760 C   0  0  0  0  0  0  0  0  0  0  0  0
   25.9690   23.5570   10.6350 C   0  0  0  0  0  0  0  0  0  0  0  0
   25.2500   24.7250   10.8570 C   0  0  0  0  0  0  0  0  0  0  0  0
   25.6800   25.6380   11.8200 C   0  0  0  0  0  0  0  0  0  0  0  0
   26.8410   25.3990   12.5900 C   0  0  0  0  0  0  0  0  0  0  0  0
   29.5850   22.9320   12.4750 F   0  0  0  0  0  0  0  0  0  0  0  0
   28.8470   23.8820   13.1070 C   0  0  0  0  0  0  0  0  0  0  0  0
   28.5530   23.3620   14.3350 F   0  0  0  0  0  0  0  0  0  0  0  0
   29.6670   24.9390   13.3230 F   0  0  0  0  0  0  0  0  0  0  0  0
   28.0761   25.9677   14.2411 H   0  0  0  0  0  0  0  0  0  0  0  0
   28.7945   27.3345   12.5489 H   0  0  0  0  0  0  0  0  0  0  0  0
   27.1811   27.8749   12.2078 H   0  0  0  0  0  0  0  0  0  0  0  0
   28.7638   29.5046   13.1752 H   0  0  0  0  0  0  0  0  0  0  0  0
   27.0817   29.2812   13.8787 H   0  0  0  0  0  0  0  0  0  0  0  0
   24.2910   26.0348   13.9589 H   0  0  0  0  0  0  0  0  0  0  0  0
   23.4338   26.7954   16.4134 H   0  0  0  0  0  0  0  0  0  0  0  0
   25.5348   27.7937   17.7202 H   0  0  0  0  0  0  0  0  0  0  0  0
   27.7642   27.5404   18.2377 H   0  0  0  0  0  0  0  0  0  0  0  0
   30.0421   28.4186   18.7435 H   0  0  0  0  0  0  0  0  0  0  0  0
   31.4390   29.3930   16.9283 H   0  0  0  0  0  0  0  0  0  0  0  0
   30.5508   29.5483   14.6077 H   0  0  0  0  0  0  0  0  0  0  0  0
   27.6835   22.3709   11.1946 H   0  0  0  0  0  0  0  0  0  0  0  0
   25.6299   22.8376    9.8751 H   0  0  0  0  0  0  0  0  0  0  0  0
   24.3408   24.9299   10.2728 H   0  0  0  0  0  0  0  0  0  0  0  0
   25.1048   26.5613   11.9832 H   0  0  0  0  0  0  0  0  0  0  0  0
  2  1  1  0
  3  2  1  0
  4  3  1  0
  5  4  2  0
  6  5  1  0
  7  6  1  0
  7  1  1  0
  8  7  2  0
  9  8  1  0
 10  9  2  0
 10  6  1  0
 11  5  1  0
 12 11  2  0
 13 12  1  0
 14  4  1  0
 14 13  2  0
 16 15  2  0
 17 16  1  0
 18 17  2  0
 19 18  1  0
 20 19  2  0
 20 15  1  0
 20  1  1  0
 22 21  1  0
 22 15  1  0
 23 22  1  0
 24 22  1  0
  1 25  1  1
  2 26  1  0
  2 27  1  0
  3 28  1  0
  3 29  1  0
  8 30  1  0
  9 31  1  0
 10 32  1  0
 11 33  1  0
 12 34  1  0
 13 35  1  0
 14 36  1  0
 16 37  1  0
 17 38  1  0
 18 39  1  0
 19 40  1  0
M  CHG  1   2   1
M  END
$$$$
=
     RDKit          3D

 37 39  0  0  0  0  0  0  0  0999 V2000
   19.4780   16.1770    3.9900 C   0  0  0  0  0  0  0  0  0  0  0  0
   19.9330   17.2790    3.1590 C   0  0  0  0  0  0  0  0  0  0  0  0
   19.1350   17.7960    1.9730 C   0  0  0  0  0  0  0  0  0  0  0  0
   21.1670   17.9980    3.3700 C   0  0  0  0  0  0  0  0  0  0  0  0
   22.0400   17.7720    4.4400 C   0  0  0  0  0  0  0  0  0  0  0  0
   21.5840   16.7970    5.3300 C   0  0  0  0  0  0  0  0  0  0  0  0
   20.3520   16.0540    5.0980 C   0  0  0  0  0  0  0  0  0  0  0  0
   20.2100   15.2710    6.2160 C   0  0  0  0  0  0  0  0  0  0  0  0
   21.3110   15.5100    6.9950 N   0  0  0  0  0  0  0  0  0  0  0  0
   22.1580   16.3990    6.4740 N   0  0  0  0  0  0  0  0  0  0  0  0
   16.7130   15.2810    5.7360 C   0  0  0  0  0  0  0  0  0  0  0  0
   16.8520   15.6970    4.2570 C   0  0  2  0  0  0  0  0  0  0  0  0
   15.7430   14.9920    3.4370 C   0  0  0  0  0  0  0  0  0  0  0  0
   16.2170   13.7180    2.7310 C   0  0  0  0  0  0  0  0  0  0  0  0
   17.3150   12.9840    3.4810 C   0  0  0  0  0  0  0  0  0  0  0  0
   18.4530   13.8950    3.8200 N   0  0  0  0  0  4  0  0  0  0  0  0
   18.2300   15.3840    3.6260 C   0  0  2  0  0  0  0  0  0  0  0  0
   18.2634   18.3607    2.3356 H   0  0  0  0  0  0  0  0  0  0  0  0
   19.7704   18.4545    1.3626 H   0  0  0  0  0  0  0  0  0  0  0  0
   18.7937   16.9470    1.3626 H   0  0  0  0  0  0  0  0  0  0  0  0
   21.4392   18.7754    2.6409 H   0  0  0  0  0  0  0  0  0  0  0  0
   22.9914   18.3092    4.5676 H   0  0  0  0  0  0  0  0  0  0  0  0
   19.3780   14.5877    6.4416 H   0  0  0  0  0  0  0  0  0  0  0  0
   21.4703   15.0456    7.9005 H   0  0  0  0  0  0  0  0  0  0  0  0
   16.9951   16.1252    6.3824 H   0  0  0  0  0  0  0  0  0  0  0  0
   15.6706   14.9952    5.9401 H   0  0  0  0  0  0  0  0  0  0  0  0
   17.3743   14.4260    5.9401 H   0  0  0  0  0  0  0  0  0  0  0  0
   16.7523   16.7922    4.2315 H   0  0  0  0  0  0  0  0  0  0  0  0
   14.9220   14.7264    4.1192 H   0  0  0  0  0  0  0  0  0  0  0  0
   15.4254   15.6955    2.6532 H   0  0  0  0  0  0  0  0  0  0  0  0
   15.3575   13.0405    2.6207 H   0  0  0  0  0  0  0  0  0  0  0  0
   16.6351   14.0220    1.7600 H   0  0  0  0  0  0  0  0  0  0  0  0
   16.8979   12.5719    4.4117 H   0  0  0  0  0  0  0  0  0  0  0  0
   17.6974   12.1813    2.8333 H   0  0  0  0  0  0  0  0  0  0  0  0
   18.6869   13.7431    4.8115 H   0  0  0  0  0  0  0  0  0  0  0  0
   19.1985   13.6487    3.1533 H   0  0  0  0  0  0  0  0  0  0  0  0
   18.1280   15.7299    2.5868 H   0  0  0  0  0  0  0  0  0  0  0  0
  2  1  2  0
  3  2  1  0
  4  2  1  0
  5  4  2  0
  6  5  1  0
  7  1  1  0
  7  6  1  0
  8  7  2  0
  9  8  1  0
 10  9  1  0
 10  6  2  0
 12 11  1  0
 13 12  1  0
 14 13  1  0
 15 14  1  0
 16 15  1  0
 17 16  1  0
 17 12  1  0
 17  1  1  0
  3 18  1  0
  3 19  1  0
  3 20  1  0
  4 21  1  0
  5 22  1  0
  8 23  1  0
  9 24  1  0
 11 25  1  0
 11 26  1  0
 11 27  1  0
 12 28  1  1
 13 29  1  0
 13 30  1  0
 14 31  1  0
 14 32  1  0
 15 33  1  0
 15 34  1  0
 16 35  1  0
 16 36  1  0
 17 37  1  6
M  CHG  1  16   1
M  END
$$$$
=
     RDKit          3D

 19 19  0  0  0  0  0  0  0  0999 V2000
   13.2870   14.7600    4.5550 F   0  0  0  0  0  0  0  0  0  0  0  0
   14.3730   14.1850    4.0200 C   0  0  0  0  0  0  0  0  0  0  0  0
   14.2000   13.0220    3.2760 C   0  0  0  0  0  0  0  0  0  0  0  0
   15.3100   12.3750    2.7480 C   0  0  0  0  0  0  0  0  0  0  0  0
   16.5900   12.8780    2.9950 C   0  0  0  0  0  0  0  0  0  0  0  0
   16.7490   14.1360    3.6330 C   0  0  0  0  0  0  0  0  0  0  0  0
   15.6330   14.7600    4.2110 C   0  0  0  0  0  0  0  0  0  0  0  0
   15.7050   16.0130    5.0230 C   0  0  0  0  0  0  0  0  0  0  0  0
   14.7220   16.9100    4.7240 F   0  0  0  0  0  0  0  0  0  0  0  0
   16.8700   16.7130    4.8540 F   0  0  0  0  0  0  0  0  0  0  0  0
   15.6090   15.7850    6.3620 F   0  0  0  0  0  0  0  0  0  0  0  0
   18.0690   14.6070    3.8320 N   0  0  0  0  0  0  0  0  0  0  0  0
   17.7170   12.2300    2.4410 N   0  0  0  0  0  0  0  0  0  0  0  0
   13.1910   12.6177    3.1071 H   0  0  0  0  0  0  0  0  0  0  0  0
   15.1817   11.4692    2.1372 H   0  0  0  0  0  0  0  0  0  0  0  0
   18.2280   15.5152    4.2912 H   0  0  0  0  0  0  0  0  0  0  0  0
   18.8704   14.0415    3.5176 H   0  0  0  0  0  0  0  0  0  0  0  0
   18.6623   12.5975    2.6206 H   0  0  0  0  0  0  0  0  0  0  0  0
   17.5931   11.3902    1.8576 H   0  0  0  0  0  0  0  0  0  0  0  0
  2  1  1  0
  3  2  2  0
  4  3  1  0
  5  4  2  0
  6  5  1  0
  7  2  1  0
  7  6  2  0
  8  7  1  0
  9  8  1  0
 10  8  1  0
 11  8  1  0
 12  6  1  0
 13  5  1  0
  3 14  1  0
  4 15  1  0
 12 16  1  0
 12 17  1  0
 13 18  1  0
 13 19  1  0
M  END
$$$$
=
     RDKit          3D

 39 40  0  0  0  0  0  0  0  0999 V2000
   18.9290   16.0340    3.2370 C   0  0  0  0  0  0  0  0  0  0  0  0
   22.9230   18.1820    4.9760 C   0  0  0  0  0  0  0  0  0  0  0  0
   21.8120   17.8280    5.9410 N   0  0  0  0  0  4  0  0  0  0  0  0
   21.5880   16.3310    6.1030 C   0  0  0  0  0  0  0  0  0  0  0  0
   20.8570   15.6930    4.8900 C   0  0  0  0  0  0  0  0  0  0  0  0
   19.9850   16.6950    4.1380 N   0  0  0  0  0  4  0  0  0  0  0  0
   19.3940   17.7540    5.0540 C   0  0  0  0  0  0  0  0  0  0  0  0
   20.5150   18.6100    5.7120 C   0  0  0  0  0  0  0  0  0  0  0  0
   18.4190   14.7030    3.8270 C   0  0  0  0  0  0  0  0  0  0  0  0
   16.9120   14.5770    3.7990 C   0  0  0  0  0  0  0  0  0  0  0  0
   16.1180   15.4980    4.4950 C   0  0  0  0  0  0  0  0  0  0  0  0
   14.7440   15.2940    4.6030 C   0  0  0  0  0  0  0  0  0  0  0  0
   14.1520   14.1790    4.0090 C   0  0  0  0  0  0  0  0  0  0  0  0
   14.9090   13.3060    3.2280 C   0  0  0  0  0  0  0  0  0  0  0  0
   16.2900   13.5040    3.1400 C   0  0  0  0  0  0  0  0  0  0  0  0
   14.3480   12.1150    2.7520 N   0  0  0  0  0  0  0  0  0  0  0  0
   18.0780   16.7217    3.1236 H   0  0  0  0  0  0  0  0  0  0  0  0
   19.3976   15.8182    2.2655 H   0  0  0  0  0  0  0  0  0  0  0  0
   23.8222   18.4685    5.5412 H   0  0  0  0  0  0  0  0  0  0  0  0
   23.1498   17.3116    4.3427 H   0  0  0  0  0  0  0  0  0  0  0  0
   22.6045   19.0231    4.3427 H   0  0  0  0  0  0  0  0  0  0  0  0
   22.1611   18.1490    6.8553 H   0  0  0  0  0  0  0  0  0  0  0  0
   22.5657   15.8408    6.2208 H   0  0  0  0  0  0  0  0  0  0  0  0
   20.9481   16.1873    6.9861 H   0  0  0  0  0  0  0  0  0  0  0  0
   21.6101   15.2908    4.1963 H   0  0  0  0  0  0  0  0  0  0  0  0
   20.1981   14.9014    5.2763 H   0  0  0  0  0  0  0  0  0  0  0  0
   20.6218   17.1868    3.4950 H   0  0  0  0  0  0  0  0  0  0  0  0
   18.7369   18.4120    4.4664 H   0  0  0  0  0  0  0  0  0  0  0  0
   18.8241   17.2513    5.8493 H   0  0  0  0  0  0  0  0  0  0  0  0
   20.7332   19.4653    5.0556 H   0  0  0  0  0  0  0  0  0  0  0  0
   20.1469   18.9306    6.6978 H   0  0  0  0  0  0  0  0  0  0  0  0
   18.8499   13.8749    3.2451 H   0  0  0  0  0  0  0  0  0  0  0  0
   18.7298   14.6728    4.8817 H   0  0  0  0  0  0  0  0  0  0  0  0
   16.5800   16.3831    4.9567 H   0  0  0  0  0  0  0  0  0  0  0  0
   14.1244   16.0138    5.1580 H   0  0  0  0  0  0  0  0  0  0  0  0
   13.0792   13.9868    4.1579 H   0  0  0  0  0  0  0  0  0  0  0  0
   16.8995   12.8080    2.5449 H   0  0  0  0  0  0  0  0  0  0  0  0
   14.9121   11.4743    2.1757 H   0  0  0  0  0  0  0  0  0  0  0  0
   13.3711   11.8794    2.9781 H   0  0  0  0  0  0  0  0  0  0  0  0
  3  2  1  0
  4  3  1  0
  5  4  1  0
  6  5  1  0
  6  1  1  0
  7  6  1  0
  8  7  1  0
  8  3  1  0
  9  1  1  0
 10  9  1  0
 11 10  2  0
 12 11  1  0
 13 12  2  0
 14 13  1  0
 15 14  2  0
 15 10  1  0
 16 14  1  0
  1 17  1  0
  1 18  1  0
  2 19  1  0
  2 20  1  0
  2 21  1  0
  3 22  1  0
  4 23  1  0
  4 24  1  0
  5 25  1  0
  5 26  1  0
  6 27  1  0
  7 28  1  0
  7 29  1  0
  8 30  1  0
  8 31  1  0
  9 32  1  0
  9 33  1  0
 11 34  1  0
 12 35  1  0
 13 36  1  0
 15 37  1  0
 16 38  1  0
 16 39  1  0
M  CHG  2   3   1   6   1
M  END
$$$$
=
     RDKit          3D

 37 38  0  0  0  0  0  0  0  0999 V2000
   18.5840   14.1160    3.9610 C   0  0  1  0  0  0  0  0  0  0  0  0
   21.8170   18.9760    4.5010 C   0  0  0  0  0  0  0  0  0  0  0  0
   20.9780   17.7380    4.3970 C   0  0  0  0  0  0  0  0  0  0  0  0
   20.2680   17.4560    3.2330 C   0  0  0  0  0  0  0  0  0  0  0  0
   19.5110   16.2890    3.1390 C   0  0  0  0  0  0  0  0  0  0  0  0
   19.4440   15.3570    4.1980 C   0  0  0  0  0  0  0  0  0  0  0  0
   20.1890   15.6250    5.3680 C   0  0  0  0  0  0  0  0  0  0  0  0
   20.9410   16.8160    5.4500 C   0  0  0  0  0  0  0  0  0  0  0  0
   20.2060   14.7090    6.5630 C   0  0  0  0  0  0  0  0  0  0  0  0
   17.0840   14.3710    4.0100 C   0  0  0  0  0  0  0  0  0  0  0  0
   16.5840   15.4690    4.7190 C   0  0  0  0  0  0  0  0  0  0  0  0
   15.2080   15.6950    4.7980 C   0  0  0  0  0  0  0  0  0  0  0  0
   14.2960   14.8560    4.1470 C   0  0  0  0  0  0  0  0  0  0  0  0
   14.7800   13.7080    3.4970 C   0  0  0  0  0  0  0  0  0  0  0  0
   16.1670   13.4890    3.4180 C   0  0  0  0  0  0  0  0  0  0  0  0
   13.8490   12.7090    2.8670 C   0  0  0  0  0  0  0  0  0  0  0  0
   12.9230   15.0630    4.3500 N   0  0  0  0  0  0  0  0  0  0  0  0
   18.9050   13.4130    2.7630 O   0  0  0  0  0  0  0  0  0  0  0  0
   18.8433   13.4775    4.8184 H   0  0  0  0  0  0  0  0  0  0  0  0
   21.9818   19.2192    5.5610 H   0  0  0  0  0  0  0  0  0  0  0  0
   22.7859   18.8047    4.0091 H   0  0  0  0  0  0  0  0  0  0  0  0
   21.2989   19.8124    4.0091 H   0  0  0  0  0  0  0  0  0  0  0  0
   20.3044   18.1559    2.3852 H   0  0  0  0  0  0  0  0  0  0  0  0
   18.9502   16.0886    2.2141 H   0  0  0  0  0  0  0  0  0  0  0  0
   21.5134   17.0257    6.3656 H   0  0  0  0  0  0  0  0  0  0  0  0
   20.1949   15.3089    7.4850 H   0  0  0  0  0  0  0  0  0  0  0  0
   19.3198   14.0578    6.5385 H   0  0  0  0  0  0  0  0  0  0  0  0
   21.1158   14.0912    6.5385 H   0  0  0  0  0  0  0  0  0  0  0  0
   17.2800   16.1594    5.2179 H   0  0  0  0  0  0  0  0  0  0  0  0
   14.8339   16.5483    5.3828 H   0  0  0  0  0  0  0  0  0  0  0  0
   16.5417   12.6059    2.8797 H   0  0  0  0  0  0  0  0  0  0  0  0
   13.3258   12.1476    3.6551 H   0  0  0  0  0  0  0  0  0  0  0  0
   13.1131   13.2367    2.2425 H   0  0  0  0  0  0  0  0  0  0  0  0
   14.4272   12.0120    2.2425 H   0  0  0  0  0  0  0  0  0  0  0  0
   12.2357   14.4565    3.8802 H   0  0  0  0  0  0  0  0  0  0  0  0
   12.6025   15.8214    4.9688 H   0  0  0  0  0  0  0  0  0  0  0  0
   19.3051   12.5368    2.9917 H   0  0  0  0  0  0  0  0  0  0  0  0
  3  2  1  0
  4  3  2  0
  5  4  1  0
  6  5  2  0
  6  1  1  0
  7  6  1  0
  8  7  2  0
  8  3  1  0
  9  7  1  0
 10  1  1  0
 11 10  2  0
 12 11  1  0
 13 12  2  0
 14 13  1  0
 15 14  2  0
 15 10  1  0
 16 14  1  0
 17 13  1  0
 18  1  1  0
  1 19  1  1
  2 20  1  0
  2 21  1  0
  2 22  1  0
  4 23  1  0
  5 24  1  0
  8 25  1  0
  9 26  1  0
  9 27  1  0
  9 28  1  0
 11 29  1  0
 12 30  1  0
 15 31  1  0
 16 32  1  0
 16 33  1  0
 16 34  1  0
 17 35  1  0
 17 36  1  0
 18 37  1  0
M  END
$$$$
=
     RDKit          3D

 27 28  0  0  0  0  0  0  0  0999 V2000
   20.2000   15.9930    4.4340 N   0  0  0  0  0  0  0  0  0  0  0  0
   21.0620   16.1320    5.5180 C   0  0  0  0  0  0  0  0  0  0  0  0
   21.8760   17.1990    5.5690 C   0  0  0  0  0  0  0  0  0  0  0  0
   21.8440   18.2230    4.5220 C   0  0  0  0  0  0  0  0  0  0  0  0
   22.6120   19.1780    4.5440 O   0  0  0  0  0  0  0  0  0  0  0  0
   20.9090   18.0460    3.5560 N   0  0  0  0  0  0  0  0  0  0  0  0
   20.1040   16.9520    3.4280 C   0  0  0  0  0  0  0  0  0  0  0  0
   19.3530   16.8710    2.4570 O   0  0  0  0  0  0  0  0  0  0  0  0
   21.1050   15.2060    6.5470 N   0  0  0  0  0  0  0  0  0  0  0  0
   19.4280   14.7640    4.2290 C   0  0  0  0  0  0  0  0  0  0  0  0
   13.8550   15.5130    4.7920 F   0  0  0  0  0  0  0  0  0  0  0  0
   15.1770   15.3380    4.6570 C   0  0  0  0  0  0  0  0  0  0  0  0
   15.6630   14.5700    3.6070 C   0  0  0  0  0  0  0  0  0  0  0  0
   17.0390   14.3870    3.4670 C   0  0  0  0  0  0  0  0  0  0  0  0
   17.9340   14.9770    4.3770 C   0  0  0  0  0  0  0  0  0  0  0  0
   17.4190   15.7430    5.4340 C   0  0  0  0  0  0  0  0  0  0  0  0
   16.0420   15.9250    5.5730 C   0  0  0  0  0  0  0  0  0  0  0  0
   22.5773   17.3056    6.4097 H   0  0  0  0  0  0  0  0  0  0  0  0
   20.7974   18.7990    2.8622 H   0  0  0  0  0  0  0  0  0  0  0  0
   21.7556   15.3406    7.3341 H   0  0  0  0  0  0  0  0  0  0  0  0
   20.4864   14.3827    6.5252 H   0  0  0  0  0  0  0  0  0  0  0  0
   19.6305   14.3866    3.2158 H   0  0  0  0  0  0  0  0  0  0  0  0
   19.7382   14.0452    5.0017 H   0  0  0  0  0  0  0  0  0  0  0  0
   14.9675   14.1089    2.8903 H   0  0  0  0  0  0  0  0  0  0  0  0
   17.4268   13.7764    2.6383 H   0  0  0  0  0  0  0  0  0  0  0  0
   18.1061   16.2038    6.1590 H   0  0  0  0  0  0  0  0  0  0  0  0
   15.6442   16.5289    6.4019 H   0  0  0  0  0  0  0  0  0  0  0  0
  2  1  1  0
  3  2  2  0
  4  3  1  0
  5  4  2  0
  6  4  1  0
  7  1  1  0
  7  6  1  0
  8  7  2  0
  9  2  1  0
 10  1  1  0
 12 11  1  0
 13 12  2  0
 14 13  1  0
 15 14  2  0
 15 10  1  0
 16 15  1  0
 17 12  1  0
 17 16  2  0
  3 18  1  0
  6 19  1  0
  9 20  1  0
  9 21  1  0
 10 22  1  0
 10 23  1  0
 13 24  1  0
 14 25  1  0
 16 26  1  0
 17 27  1  0
M  END
$$$$
=
     RDKit          3D

 34 34  0  0  0  0  0  0  0  0999 V2000
   19.5200   16.7260    4.8380 N   0  0  0  0  0  0  0  0  0  0  0  0
   18.8660   15.8540    4.0030 C   0  0  0  0  0  0  0  0  0  0  0  0
   19.4210   15.1330    3.1740 O   0  0  0  0  0  0  0  0  0  0  0  0
   17.3310   15.8220    4.1030 C   0  0  2  0  0  0  0  0  0  0  0  0
   16.8270   16.0860    5.5230 C   0  0  0  0  0  0  0  0  0  0  0  0
   15.5200   15.3590    5.8610 C   0  0  0  0  0  0  0  0  0  0  0  0
   14.6620   15.1410    4.6210 C   0  0  0  0  0  0  0  0  0  0  0  0
   15.3720   14.3020    3.5630 C   0  0  0  0  0  0  0  0  0  0  0  0
   16.8430   14.4570    3.6670 N   0  0  0  0  0  4  0  0  0  0  0  0
   20.9790   16.8260    4.8750 C   0  0  1  0  0  0  0  0  0  0  0  0
   21.3860   18.2860    4.6850 C   0  0  0  0  0  0  0  0  0  0  0  0
   20.7550   15.0940    6.7410 C   0  0  0  0  0  0  0  0  0  0  0  0
   21.5380   16.2830    6.1990 C   0  0  0  0  0  0  0  0  0  0  0  0
   18.9642   17.3305    5.4597 H   0  0  0  0  0  0  0  0  0  0  0  0
   16.9412   16.6205    3.4546 H   0  0  0  0  0  0  0  0  0  0  0  0
   17.6005   15.7566    6.2324 H   0  0  0  0  0  0  0  0  0  0  0  0
   16.6216   17.1643    5.5947 H   0  0  0  0  0  0  0  0  0  0  0  0
   15.7598   14.3817    6.3054 H   0  0  0  0  0  0  0  0  0  0  0  0
   14.9521   15.9830    6.5667 H   0  0  0  0  0  0  0  0  0  0  0  0
   13.7365   14.6259    4.9178 H   0  0  0  0  0  0  0  0  0  0  0  0
   14.4511   16.1270    4.1813 H   0  0  0  0  0  0  0  0  0  0  0  0
   15.1100   13.2434    3.7068 H   0  0  0  0  0  0  0  0  0  0  0  0
   15.0511   14.6445    2.5681 H   0  0  0  0  0  0  0  0  0  0  0  0
   17.1864   13.7657    4.3489 H   0  0  0  0  0  0  0  0  0  0  0  0
   17.2074   14.3204    2.7133 H   0  0  0  0  0  0  0  0  0  0  0  0
   21.3983   16.2159    4.0614 H   0  0  0  0  0  0  0  0  0  0  0  0
   21.5183   18.7607    5.6684 H   0  0  0  0  0  0  0  0  0  0  0  0
   22.3315   18.3332    4.1249 H   0  0  0  0  0  0  0  0  0  0  0  0
   20.6012   18.8155    4.1249 H   0  0  0  0  0  0  0  0  0  0  0  0
   20.7695   15.1160    7.8407 H   0  0  0  0  0  0  0  0  0  0  0  0
   19.7150   15.1477    6.3868 H   0  0  0  0  0  0  0  0  0  0  0  0
   21.2152   14.1598    6.3868 H   0  0  0  0  0  0  0  0  0  0  0  0
   21.5102   17.0894    6.9466 H   0  0  0  0  0  0  0  0  0  0  0  0
   22.5630   15.9357    6.0019 H   0  0  0  0  0  0  0  0  0  0  0  0
  2  1  1  0
  3  2  2  0
  4  2  1  0
  5  4  1  0
  6  5  1  0
  7  6  1  0
  8  7  1  0
  9  8  1  0
  9  4  1  0
 10  1  1  0
 11 10  1  0
 13 12  1  0
 13 10  1  0
  1 14  1  0
  4 15  1  6
  5 16  1  0
  5 17  1  0
  6 18  1  0
  6 19  1  0
  7 20  1  0
  7 21  1  0
  8 22  1  0
  8 23  1  0
  9 24  1  0
  9 25  1  0
 10 26  1  6
 11 27  1  0
 11 28  1  0
 11 29  1  0
 12 30  1  0
 12 31  1  0
 12 32  1  0
 13 33  1  0
 13 34  1  0
M  CHG  1   9   1
M  END
$$$$
=
     RDKit          3D

 36 38  0  0  0  0  0  0  0  0999 V2000
   15.3100   14.5770    3.8880 C   0  0  0  0  0  0  0  0  0  0  0  0
   15.6260   13.4440    3.1580 C   0  0  0  0  0  0  0  0  0  0  0  0
   14.6290   12.5180    2.8460 C   0  0  0  0  0  0  0  0  0  0  0  0
   13.3290   12.7420    3.2720 C   0  0  0  0  0  0  0  0  0  0  0  0
   13.0630   13.8940    3.9950 C   0  0  0  0  0  0  0  0  0  0  0  0
   14.0370   14.7890    4.3130 N   0  0  0  0  0  0  0  0  0  0  0  0
   20.1590   18.0120    5.2730 C   0  0  0  0  0  0  0  0  0  0  0  0
   19.4260   16.8130    4.7970 C   0  0  0  0  0  0  0  0  0  0  0  0
   19.9740   15.6320    4.3460 C   0  0  0  0  0  0  0  0  0  0  0  0
   18.7300   14.5490    3.9040 S   0  0  0  0  0  0  0  0  0  0  0  0
   17.5340   15.7050    4.3500 C   0  0  0  0  0  0  0  0  0  0  0  0
   18.0410   16.8410    4.7860 N   0  0  0  0  0  0  0  0  0  0  0  0
   16.1940   15.5720    4.2730 N   0  0  0  0  0  0  0  0  0  0  0  0
   11.6720   14.1750    4.5290 C   0  0  1  0  0  0  0  0  0  0  0  0
   10.5980   13.6900    3.5280 C   0  0  0  0  0  0  0  0  0  0  0  0
    9.2100   13.8960    4.1020 N   0  0  0  0  0  4  0  0  0  0  0  0
    9.0730   13.2790    5.4660 C   0  0  0  0  0  0  0  0  0  0  0  0
   10.1950   13.8010    6.3690 C   0  0  0  0  0  0  0  0  0  0  0  0
   11.4800   13.5220    5.8020 O   0  0  0  0  0  0  0  0  0  0  0  0
   16.6603   13.2738    2.8246 H   0  0  0  0  0  0  0  0  0  0  0  0
   14.8735   11.6161    2.2657 H   0  0  0  0  0  0  0  0  0  0  0  0
   12.5286   12.0234    3.0419 H   0  0  0  0  0  0  0  0  0  0  0  0
   20.1666   18.0244    6.3729 H   0  0  0  0  0  0  0  0  0  0  0  0
   21.1932   17.9818    4.8995 H   0  0  0  0  0  0  0  0  0  0  0  0
   19.6606   18.9187    4.8995 H   0  0  0  0  0  0  0  0  0  0  0  0
   21.0512   15.4188    4.2805 H   0  0  0  0  0  0  0  0  0  0  0  0
   15.7043   16.4255    4.5772 H   0  0  0  0  0  0  0  0  0  0  0  0
   11.5694   15.2619    4.6635 H   0  0  0  0  0  0  0  0  0  0  0  0
   10.6914   14.2598    2.5917 H   0  0  0  0  0  0  0  0  0  0  0  0
   10.7487   12.6177    3.3342 H   0  0  0  0  0  0  0  0  0  0  0  0
    9.0252   14.9068    4.1732 H   0  0  0  0  0  0  0  0  0  0  0  0
    8.5329   13.4393    3.4744 H   0  0  0  0  0  0  0  0  0  0  0  0
    8.0978   13.5504    5.8965 H   0  0  0  0  0  0  0  0  0  0  0  0
    9.1421   12.1841    5.3854 H   0  0  0  0  0  0  0  0  0  0  0  0
   10.0833   14.8886    6.4898 H   0  0  0  0  0  0  0  0  0  0  0  0
   10.1244   13.2964    7.3439 H   0  0  0  0  0  0  0  0  0  0  0  0
  2  1  2  0
  3  2  1  0
  4  3  2  0
  5  4  1  0
  6  5  2  0
  6  1  1  0
  8  7  1  0
  9  8  2  0
 10  9  1  0
 11 10  1  0
 12 11  2  0
 12  8  1  0
 13  1  1  0
 13 11  1  0
 14  5  1  0
 15 14  1  0
 16 15  1  0
 17 16  1  0
 18 17  1  0
 19 18  1  0
 19 14  1  0
  2 20  1  0
  3 21  1  0
  4 22  1  0
  7 23  1  0
  7 24  1  0
  7 25  1  0
  9 26  1  0
 13 27  1  0
 14 28  1  1
 15 29  1  0
 15 30  1  0
 16 31  1  0
 16 32  1  0
 17 33  1  0
 17 34  1  0
 18 35  1  0
 18 36  1  0
M  CHG  1  16   1
M  END
$$$$
=
     RDKit          3D

 27 28  0  0  0  0  0  0  0  0999 V2000
   12.6670   13.9060    3.8980 C   0  0  0  0  0  0  0  0  0  0  0  0
   13.6310   14.8310    4.3040 C   0  0  0  0  0  0  0  0  0  0  0  0
   14.9890   14.6030    4.0590 C   0  0  0  0  0  0  0  0  0  0  0  0
   15.4010   13.4540    3.3730 C   0  0  0  0  0  0  0  0  0  0  0  0
   14.4340   12.5630    2.8980 C   0  0  0  0  0  0  0  0  0  0  0  0
   13.0770   12.8010    3.1480 C   0  0  0  0  0  0  0  0  0  0  0  0
   11.3070   14.1980    4.0390 N   0  0  0  0  0  0  0  0  0  0  0  0
   16.8580   13.2650    3.1340 C   0  0  0  0  0  0  0  0  0  0  0  0
   17.2620   12.2680    2.5450 O   0  0  0  0  0  0  0  0  0  0  0  0
   17.7880   14.3300    3.5930 C   0  0  0  0  0  0  0  0  0  0  0  0
   18.8310   14.0010    4.3670 C   0  0  0  0  0  0  0  0  0  0  0  0
   19.7450   14.9920    4.8170 C   0  0  0  0  0  0  0  0  0  0  0  0
   20.4450   15.0430    6.0170 C   0  0  0  0  0  0  0  0  0  0  0  0
   21.2310   16.2190    6.0150 C   0  0  0  0  0  0  0  0  0  0  0  0
   20.9800   16.8350    4.8170 C   0  0  0  0  0  0  0  0  0  0  0  0
   20.0930   16.1120    4.0910 O   0  0  0  0  0  0  0  0  0  0  0  0
   13.3188   15.7495    4.8225 H   0  0  0  0  0  0  0  0  0  0  0  0
   15.7373   15.3302    4.4071 H   0  0  0  0  0  0  0  0  0  0  0  0
   14.7396   11.6738    2.3271 H   0  0  0  0  0  0  0  0  0  0  0  0
   12.3226   12.1076    2.7479 H   0  0  0  0  0  0  0  0  0  0  0  0
   10.5993   13.5128    3.7382 H   0  0  0  0  0  0  0  0  0  0  0  0
   11.0128   15.0983    4.4437 H   0  0  0  0  0  0  0  0  0  0  0  0
   17.6216   15.3772    3.3003 H   0  0  0  0  0  0  0  0  0  0  0  0
   18.9818   12.9509    4.6578 H   0  0  0  0  0  0  0  0  0  0  0  0
   20.3962   14.2993    6.8261 H   0  0  0  0  0  0  0  0  0  0  0  0
   21.9051   16.5674    6.8114 H   0  0  0  0  0  0  0  0  0  0  0  0
   21.4342   17.7823    4.4908 H   0  0  0  0  0  0  0  0  0  0  0  0
  2  1  2  0
  3  2  1  0
  4  3  2  0
  5  4  1  0
  6  5  2  0
  6  1  1  0
  7  1  1  0
  8  4  1  0
  9  8  2  0
 10  8  1  0
 11 10  2  0
 12 11  1  0
 13 12  2  0
 14 13  1  0
 15 14  2  0
 16 12  1  0
 16 15  1  0
  2 17  1  0
  3 18  1  0
  5 19  1  0
  6 20  1  0
  7 21  1  0
  7 22  1  0
 10 23  1  0
 11 24  1  0
 13 25  1  0
 14 26  1  0
 15 27  1  0
M  END
$$$$
=
     RDKit          3D

 28 28  0  0  0  0  0  0  0  0999 V2000
   19.9410   17.4760    1.7330 C   0  0  0  0  0  0  0  0  0  0  0  0
   19.8050   17.9170    3.1880 C   0  0  1  0  0  0  0  0  0  0  0  0
   18.7950   17.1000    4.0110 C   0  0  2  0  0  0  0  0  0  0  0  0
   18.7010   17.6370    5.4540 C   0  0  0  0  0  0  0  0  0  0  0  0
   19.8280   18.6090    5.8210 C   0  0  0  0  0  0  0  0  0  0  0  0
   21.1950   18.1750    5.3080 C   0  0  0  0  0  0  0  0  0  0  0  0
   21.1530   17.8420    3.8500 N   0  0  0  0  0  4  0  0  0  0  0  0
   19.2030   15.6320    4.0580 C   0  0  0  0  0  0  0  0  0  0  0  0
   20.2510   15.2900    4.6030 O   0  0  0  0  0  0  0  0  0  0  0  0
   18.2930   14.7610    3.5180 N   0  0  0  0  0  0  0  0  0  0  0  0
   18.4950   13.3300    3.5620 C   0  0  0  0  0  0  0  0  0  0  0  0
   20.2650   16.4254    1.6970 H   0  0  0  0  0  0  0  0  0  0  0  0
   18.9697   17.5777    1.2267 H   0  0  0  0  0  0  0  0  0  0  0  0
   20.6863   18.1071    1.2267 H   0  0  0  0  0  0  0  0  0  0  0  0
   19.4162   18.9457    3.1617 H   0  0  0  0  0  0  0  0  0  0  0  0
   17.8145   17.1950    3.5215 H   0  0  0  0  0  0  0  0  0  0  0  0
   17.7398   18.1595    5.5688 H   0  0  0  0  0  0  0  0  0  0  0  0
   18.7893   16.7714    6.1270 H   0  0  0  0  0  0  0  0  0  0  0  0
   19.5917   19.5941    5.3922 H   0  0  0  0  0  0  0  0  0  0  0  0
   19.8878   18.6357    6.9190 H   0  0  0  0  0  0  0  0  0  0  0  0
   21.9128   18.9932    5.4673 H   0  0  0  0  0  0  0  0  0  0  0  0
   21.5003   17.2734    5.8593 H   0  0  0  0  0  0  0  0  0  0  0  0
   21.7799   18.4965    3.3605 H   0  0  0  0  0  0  0  0  0  0  0  0
   21.4358   16.8537    3.7858 H   0  0  0  0  0  0  0  0  0  0  0  0
   17.4444   15.1350    3.0698 H   0  0  0  0  0  0  0  0  0  0  0  0
   18.5418   12.9984    4.6098 H   0  0  0  0  0  0  0  0  0  0  0  0
   17.6591   12.8259    3.0549 H   0  0  0  0  0  0  0  0  0  0  0  0
   19.4378   13.0770    3.0549 H   0  0  0  0  0  0  0  0  0  0  0  0
  2  1  1  0
  3  2  1  0
  4  3  1  0
  5  4  1  0
  6  5  1  0
  7  6  1  0
  7  2  1  0
  8  3  1  0
  9  8  2  0
 10  8  1  0
 11 10  1  0
  1 12  1  0
  1 13  1  0
  1 14  1  0
  2 15  1  6
  3 16  1  6
  4 17  1  0
  4 18  1  0
  5 19  1  0
  5 20  1  0
  6 21  1  0
  6 22  1  0
  7 23  1  0
  7 24  1  0
 10 25  1  0
 11 26  1  0
 11 27  1  0
 11 28  1  0
M  CHG  1   7   1
M  END
$$$$
=
     RDKit          3D

 28 29  0  0  0  0  0  0  0  0999 V2000
   19.2730   16.3640    5.2620 N   0  0  0  0  0  4  0  0  0  0  0  0
   17.8410   16.9370    5.1700 C   0  0  0  0  0  0  0  0  0  0  0  0
   16.7970   15.8340    4.8690 C   0  0  0  0  0  0  0  0  0  0  0  0
   17.1840   15.0370    3.6510 N   0  0  0  0  0  4  0  0  0  0  0  0
   18.5590   14.4300    3.7370 C   0  0  0  0  0  0  0  0  0  0  0  0
   19.6270   15.5110    4.0220 C   0  0  0  0  0  0  0  0  0  0  0  0
   21.7160   16.1030    6.9520 O   0  0  0  0  0  0  0  0  0  0  0  0
   21.6580   16.9890    6.1140 C   0  0  0  0  0  0  0  0  0  0  0  0
   22.7100   17.6580    5.5750 O   0  0  0  0  0  0  0  0  0  0  0  0
   22.2300   18.5790    4.5870 C   0  0  0  0  0  0  0  0  0  0  0  0
   20.8790   18.0340    4.1640 C   0  0  0  0  0  0  0  0  0  0  0  0
   20.3730   17.4570    5.4670 C   0  0  1  0  0  0  0  0  0  0  0  0
   19.2668   15.7683    6.1022 H   0  0  0  0  0  0  0  0  0  0  0  0
   17.5871   17.4155    6.1274 H   0  0  0  0  0  0  0  0  0  0  0  0
   17.8167   17.6642    4.3450 H   0  0  0  0  0  0  0  0  0  0  0  0
   16.7296   15.1578    5.7340 H   0  0  0  0  0  0  0  0  0  0  0  0
   15.8267   16.3152    4.6771 H   0  0  0  0  0  0  0  0  0  0  0  0
   16.4999   14.2767    3.5290 H   0  0  0  0  0  0  0  0  0  0  0  0
   17.1923   15.6897    2.8542 H   0  0  0  0  0  0  0  0  0  0  0  0
   18.5739   13.6874    4.5483 H   0  0  0  0  0  0  0  0  0  0  0  0
   18.7919   13.9538    2.7732 H   0  0  0  0  0  0  0  0  0  0  0  0
   20.5944   15.0171    4.1954 H   0  0  0  0  0  0  0  0  0  0  0  0
   19.6722   16.1812    3.1509 H   0  0  0  0  0  0  0  0  0  0  0  0
   22.1231   19.5859    5.0169 H   0  0  0  0  0  0  0  0  0  0  0  0
   22.9225   18.6707    3.7373 H   0  0  0  0  0  0  0  0  0  0  0  0
   20.2199   18.8333    3.7943 H   0  0  0  0  0  0  0  0  0  0  0  0
   20.9234   17.3100    3.3371 H   0  0  0  0  0  0  0  0  0  0  0  0
   19.8284   18.1667    6.1071 H   0  0  0  0  0  0  0  0  0  0  0  0
  2  1  1  0
  3  2  1  0
  4  3  1  0
  5  4  1  0
  6  5  1  0
  6  1  1  0
  8  7  2  0
  9  8  1  0
 10  9  1  0
 11 10  1  0
 12 11  1  0
 12  1  1  0
 12  8  1  0
  1 13  1  0
  2 14  1  0
  2 15  1  0
  3 16  1  0
  3 17  1  0
  4 18  1  0
  4 19  1  0
  5 20  1  0
  5 21  1  0
  6 22  1  0
  6 23  1  0
 10 24  1  0
 10 25  1  0
 11 26  1  0
 11 27  1  0
 12 28  1  1
M  CHG  2   1   1   4   1
M  END
$$$$
=
     RDKit          3D

 33 34  0  0  0  0  0  0  0  0999 V2000
   17.2750   15.5190    4.9750 C   0  0  0  0  0  0  0  0  0  0  0  0
   17.5400   14.7080    3.9080 O   0  0  0  0  0  0  0  0  0  0  0  0
   18.9150   14.7920    3.6730 N   0  0  0  0  0  0  0  0  0  0  0  0
   19.3320   15.6310    4.6250 C   0  0  0  0  0  0  0  0  0  0  0  0
   18.3480   16.1220    5.4510 N   0  0  0  0  0  0  0  0  0  0  0  0
   20.7540   16.0550    4.7830 C   0  0  2  0  0  0  0  0  0  0  0  0
   21.1530   16.1610    6.2680 C   0  0  0  0  0  0  0  0  0  0  0  0
   22.4880   16.6700    6.4210 O   0  0  0  0  0  0  0  0  0  0  0  0
   22.6220   17.9910    5.8810 C   0  0  0  0  0  0  0  0  0  0  0  0
   22.3370   17.9850    4.3790 C   0  0  0  0  0  0  0  0  0  0  0  0
   20.9750   17.4230    4.1280 N   0  0  0  0  0  4  0  0  0  0  0  0
   15.8610   15.6010    5.4180 C   0  0  0  0  0  0  0  0  0  0  0  0
   14.9110   15.6460    4.2210 C   0  0  0  0  0  0  0  0  0  0  0  0
   14.2880   13.2640    3.6860 C   0  0  0  0  0  0  0  0  0  0  0  0
   13.8340   14.5660    4.3260 C   0  0  0  0  0  0  0  0  0  0  0  0
   21.3759   15.2892    4.2964 H   0  0  0  0  0  0  0  0  0  0  0  0
   20.4521   16.8376    6.7787 H   0  0  0  0  0  0  0  0  0  0  0  0
   21.1161   15.1532    6.7074 H   0  0  0  0  0  0  0  0  0  0  0  0
   21.9086   18.6615    6.3825 H   0  0  0  0  0  0  0  0  0  0  0  0
   23.6514   18.3413    6.0471 H   0  0  0  0  0  0  0  0  0  0  0  0
   22.3849   19.0141    3.9934 H   0  0  0  0  0  0  0  0  0  0  0  0
   23.0876   17.3643    3.8678 H   0  0  0  0  0  0  0  0  0  0  0  0
   20.8446   17.3236    3.1111 H   0  0  0  0  0  0  0  0  0  0  0  0
   20.2945   18.0744    4.5445 H   0  0  0  0  0  0  0  0  0  0  0  0
   15.6249   14.7188    6.0311 H   0  0  0  0  0  0  0  0  0  0  0  0
   15.7309   16.5239    6.0022 H   0  0  0  0  0  0  0  0  0  0  0  0
   14.4265   16.6329    4.1849 H   0  0  0  0  0  0  0  0  0  0  0  0
   15.4955   15.4659    3.3067 H   0  0  0  0  0  0  0  0  0  0  0  0
   14.5413   12.5377    4.4723 H   0  0  0  0  0  0  0  0  0  0  0  0
   13.4776   12.8604    3.0613 H   0  0  0  0  0  0  0  0  0  0  0  0
   15.1737   13.4518    3.0613 H   0  0  0  0  0  0  0  0  0  0  0  0
   12.9246   14.9170    3.8163 H   0  0  0  0  0  0  0  0  0  0  0  0
   13.6368   14.3770    5.3915 H   0  0  0  0  0  0  0  0  0  0  0  0
  2  1  1  0
  3  2  1  0
  4  3  2  0
  5  4  1  0
  5  1  2  0
  6  4  1  0
  7  6  1  0
  8  7  1  0
  9  8  1  0
 10  9  1  0
 11  6  1  0
 11 10  1  0
 12  1  1  0
 13 12  1  0
 15 14  1  0
 15 13  1  0
  6 16  1  6
  7 17  1  0
  7 18  1  0
  9 19  1  0
  9 20  1  0
 10 21  1  0
 10 22  1  0
 11 23  1  0
 11 24  1  0
 12 25  1  0
 12 26  1  0
 13 27  1  0
 13 28  1  0
 14 29  1  0
 14 30  1  0
 14 31  1  0
 15 32  1  0
 15 33  1  0
M  CHG  1  11   1
M  END
$$$$
=
     RDKit          3D

 29 29  0  0  0  0  0  0  0  0999 V2000
   17.4180   15.7250    4.9620 C   0  0  0  0  0  0  0  0  0  0  0  0
   16.1320   16.1370    5.3290 C   0  0  0  0  0  0  0  0  0  0  0  0
   15.0010   15.5440    4.7610 C   0  0  0  0  0  0  0  0  0  0  0  0
   15.1420   14.5360    3.8100 C   0  0  0  0  0  0  0  0  0  0  0  0
   16.4140   14.1510    3.3910 C   0  0  0  0  0  0  0  0  0  0  0  0
   17.5460   14.7910    3.9020 C   0  0  0  0  0  0  0  0  0  0  0  0
   18.8400   14.3670    3.5010 N   0  0  0  0  0  0  0  0  0  0  0  0
   18.6060   16.2660    5.5060 N   0  0  0  0  0  0  0  0  0  0  0  0
   18.8140   17.7120    5.4240 C   0  0  0  0  0  0  0  0  0  0  0  0
   20.3140   18.0040    5.3700 C   0  0  0  0  0  0  0  0  0  0  0  0
   20.8330   18.0520    3.9380 C   0  0  0  0  0  0  0  0  0  0  0  0
   19.7680   17.5160    1.9050 C   0  0  0  0  0  0  0  0  0  0  0  0
   20.2060   17.0300    3.1660 O   0  0  0  0  0  0  0  0  0  0  0  0
   16.0098   16.9374    6.0736 H   0  0  0  0  0  0  0  0  0  0  0  0
   13.9969   15.8741    5.0657 H   0  0  0  0  0  0  0  0  0  0  0  0
   14.2514   14.0451    3.3908 H   0  0  0  0  0  0  0  0  0  0  0  0
   16.5272   13.3407    2.6557 H   0  0  0  0  0  0  0  0  0  0  0  0
   19.6756   14.8377    3.8767 H   0  0  0  0  0  0  0  0  0  0  0  0
   18.9433   13.5887    2.8343 H   0  0  0  0  0  0  0  0  0  0  0  0
   19.3081   15.6566    5.9494 H   0  0  0  0  0  0  0  0  0  0  0  0
   18.3307   18.1019    4.5160 H   0  0  0  0  0  0  0  0  0  0  0  0
   18.3753   18.1983    6.3078 H   0  0  0  0  0  0  0  0  0  0  0  0
   20.5046   18.9752    5.8500 H   0  0  0  0  0  0  0  0  0  0  0  0
   20.8382   17.1920    5.8953 H   0  0  0  0  0  0  0  0  0  0  0  0
   20.6046   19.0343    3.4988 H   0  0  0  0  0  0  0  0  0  0  0  0
   21.9214   17.8924    3.9390 H   0  0  0  0  0  0  0  0  0  0  0  0
   19.0387   18.3253    2.0572 H   0  0  0  0  0  0  0  0  0  0  0  0
   20.6303   17.9008    1.3407 H   0  0  0  0  0  0  0  0  0  0  0  0
   19.2959   16.6982    1.3407 H   0  0  0  0  0  0  0  0  0  0  0  0
  2  1  2  0
  3  2  1  0
  4  3  2  0
  5  4  1  0
  6  5  2  0
  6  1  1  0
  7  6  1  0
  8  1  1  0
  9  8  1  0
 10  9  1  0
 11 10  1  0
 13 12  1  0
 13 11  1  0
  2 14  1  0
  3 15  1  0
  4 16  1  0
  5 17  1  0
  7 18  1  0
  7 19  1  0
  8 20  1  0
  9 21  1  0
  9 22  1  0
 10 23  1  0
 10 24  1  0
 11 25  1  0
 11 26  1  0
 12 27  1  0
 12 28  1  0
 12 29  1  0
M  END
$$$$
=
     RDKit          3D

 37 37  0  0  0  0  0  0  0  0999 V2000
   16.9610   14.1530    3.4540 C   0  0  0  0  0  0  0  0  0  0  0  0
   15.7680   14.6410    3.9410 C   0  0  0  0  0  0  0  0  0  0  0  0
   14.6080   13.9680    3.8790 N   0  0  0  0  0  0  0  0  0  0  0  0
   14.6200   12.7590    3.3020 C   0  0  0  0  0  0  0  0  0  0  0  0
   15.7240   12.2120    2.7790 N   0  0  0  0  0  0  0  0  0  0  0  0
   16.8670   12.9150    2.8590 C   0  0  0  0  0  0  0  0  0  0  0  0
   13.4750   11.9880    3.2440 N   0  0  0  0  0  0  0  0  0  0  0  0
   12.2310   12.7260    3.1210 C   0  0  0  0  0  0  0  0  0  0  0  0
   11.2650   11.9410    2.2470 C   0  0  0  0  0  0  0  0  0  0  0  0
   18.2490   14.8750    3.6110 C   0  0  0  0  0  0  0  0  0  0  0  0
   19.0800   14.2990    4.7150 N   0  0  0  0  0  4  0  0  0  0  0  0
   19.0740   15.1140    5.9730 C   0  0  0  0  0  0  0  0  0  0  0  0
   20.4500   15.0320    6.6210 C   0  0  0  0  0  0  0  0  0  0  0  0
   21.5030   15.7250    5.7650 C   0  0  0  0  0  0  0  0  0  0  0  0
   22.6250   17.7990    5.8150 C   0  0  0  0  0  0  0  0  0  0  0  0
   22.1660   16.6870    6.5800 O   0  0  0  0  0  0  0  0  0  0  0  0
   15.7659   15.6376    4.4066 H   0  0  0  0  0  0  0  0  0  0  0  0
   17.7778   12.4768    2.4250 H   0  0  0  0  0  0  0  0  0  0  0  0
   13.5022   10.9592    3.2852 H   0  0  0  0  0  0  0  0  0  0  0  0
   11.7896   12.8709    4.1181 H   0  0  0  0  0  0  0  0  0  0  0  0
   12.4281   13.7067    2.6634 H   0  0  0  0  0  0  0  0  0  0  0  0
   10.5696   11.3759    2.8851 H   0  0  0  0  0  0  0  0  0  0  0  0
   10.6969   12.6367    1.6119 H   0  0  0  0  0  0  0  0  0  0  0  0
   11.8298   11.2427    1.6119 H   0  0  0  0  0  0  0  0  0  0  0  0
   18.8124   14.8065    2.6687 H   0  0  0  0  0  0  0  0  0  0  0  0
   18.0248   15.9219    3.8633 H   0  0  0  0  0  0  0  0  0  0  0  0
   18.7188   13.3600    4.9359 H   0  0  0  0  0  0  0  0  0  0  0  0
   20.0527   14.2810    4.3768 H   0  0  0  0  0  0  0  0  0  0  0  0
   18.8408   16.1619    5.7329 H   0  0  0  0  0  0  0  0  0  0  0  0
   18.3125   14.7252    6.6651 H   0  0  0  0  0  0  0  0  0  0  0  0
   20.4121   15.5182    7.6070 H   0  0  0  0  0  0  0  0  0  0  0  0
   20.7253   13.9718    6.7223 H   0  0  0  0  0  0  0  0  0  0  0  0
   22.2284   14.9861    5.3938 H   0  0  0  0  0  0  0  0  0  0  0  0
   21.0319   16.2150    4.9001 H   0  0  0  0  0  0  0  0  0  0  0  0
   22.9554   18.5994    6.4934 H   0  0  0  0  0  0  0  0  0  0  0  0
   23.4671   17.4851    5.1807 H   0  0  0  0  0  0  0  0  0  0  0  0
   21.8067   18.1705    5.1807 H   0  0  0  0  0  0  0  0  0  0  0  0
  2  1  2  0
  3  2  1  0
  4  3  2  0
  5  4  1  0
  6  5  2  0
  6  1  1  0
  7  4  1  0
  8  7  1  0
  9  8  1  0
 10  1  1  0
 11 10  1  0
 12 11  1  0
 13 12  1  0
 14 13  1  0
 16 14  1  0
 16 15  1  0
  2 17  1  0
  6 18  1  0
  7 19  1  0
  8 20  1  0
  8 21  1  0
  9 22  1  0
  9 23  1  0
  9 24  1  0
 10 25  1  0
 10 26  1  0
 11 27  1  0
 11 28  1  0
 12 29  1  0
 12 30  1  0
 13 31  1  0
 13 32  1  0
 14 33  1  0
 14 34  1  0
 15 35  1  0
 15 36  1  0
 15 37  1  0
M  CHG  1  11   1
M  END
$$$$
=
     RDKit          3D

 31 31  0  0  0  0  0  0  0  0999 V2000
   17.9930   16.5560    4.6300 N   0  0  0  0  0  4  0  0  0  0  0  0
   16.9950   16.7870    5.7260 C   0  0  0  0  0  0  0  0  0  0  0  0
   15.9590   15.6690    5.7550 C   0  0  0  0  0  0  0  0  0  0  0  0
   14.0310   14.6160    4.5190 C   0  0  0  0  0  0  0  0  0  0  0  0
   14.9810   15.8020    4.5880 C   0  0  0  0  0  0  0  0  0  0  0  0
   18.6210   15.1950    4.6030 C   0  0  0  0  0  0  0  0  0  0  0  0
   20.0300   15.2580    5.1700 C   0  0  2  0  0  0  0  0  0  0  0  0
   20.1280   14.9360    6.6500 C   0  0  0  0  0  0  0  0  0  0  0  0
   21.3320   15.5500    7.1110 O   0  0  0  0  0  0  0  0  0  0  0  0
   21.7530   16.5320    6.1540 C   0  0  0  0  0  0  0  0  0  0  0  0
   20.6320   16.6510    5.1400 C   0  0  0  0  0  0  0  0  0  0  0  0
   17.5146   16.7023    3.7296 H   0  0  0  0  0  0  0  0  0  0  0  0
   18.7623   17.2182    4.8049 H   0  0  0  0  0  0  0  0  0  0  0  0
   17.5201   16.8180    6.6921 H   0  0  0  0  0  0  0  0  0  0  0  0
   16.4806   17.7415    5.5408 H   0  0  0  0  0  0  0  0  0  0  0  0
   16.4735   14.6992    5.6851 H   0  0  0  0  0  0  0  0  0  0  0  0
   15.3943   15.7371    6.6966 H   0  0  0  0  0  0  0  0  0  0  0  0
   13.7726   14.2934    5.5384 H   0  0  0  0  0  0  0  0  0  0  0  0
   13.1157   14.9100    3.9844 H   0  0  0  0  0  0  0  0  0  0  0  0
   14.5177   13.7870    3.9844 H   0  0  0  0  0  0  0  0  0  0  0  0
   15.5508   15.8587    3.6488 H   0  0  0  0  0  0  0  0  0  0  0  0
   14.3845   16.7137    4.7397 H   0  0  0  0  0  0  0  0  0  0  0  0
   18.0162   14.5033    5.2077 H   0  0  0  0  0  0  0  0  0  0  0  0
   18.6673   14.8406    3.5627 H   0  0  0  0  0  0  0  0  0  0  0  0
   20.5430   14.5264    4.5285 H   0  0  0  0  0  0  0  0  0  0  0  0
   19.2605   15.3459    7.1879 H   0  0  0  0  0  0  0  0  0  0  0  0
   20.1388   13.8500    6.8247 H   0  0  0  0  0  0  0  0  0  0  0  0
   21.9210   17.4992    6.6504 H   0  0  0  0  0  0  0  0  0  0  0  0
   22.6972   16.2390    5.6716 H   0  0  0  0  0  0  0  0  0  0  0  0
   21.0212   16.8967    4.1409 H   0  0  0  0  0  0  0  0  0  0  0  0
   19.9115   17.4505    5.3673 H   0  0  0  0  0  0  0  0  0  0  0  0
  2  1  1  0
  3  2  1  0
  5  4  1  0
  5  3  1  0
  6  1  1  0
  7  6  1  0
  8  7  1  0
  9  8  1  0
 10  9  1  0
 11  7  1  0
 11 10  1  0
  1 12  1  0
  1 13  1  0
  2 14  1  0
  2 15  1  0
  3 16  1  0
  3 17  1  0
  4 18  1  0
  4 19  1  0
  4 20  1  0
  5 21  1  0
  5 22  1  0
  6 23  1  0
  6 24  1  0
  7 25  1  6
  8 26  1  0
  8 27  1  0
 10 28  1  0
 10 29  1  0
 11 30  1  0
 11 31  1  0
M  CHG  1   1   1
M  END
$$$$
=
     RDKit          3D

 21 21  0  0  0  0  0  0  0  0999 V2000
   26.3680   24.0840   11.3370 C   0  0  1  0  0  0  0  0  0  0  0  0
   26.3960   22.5870   10.9500 C   0  0  0  0  0  0  0  0  0  0  0  0
   27.8140   22.1450   11.2070 N   0  0  0  0  0  4  0  0  0  0  0  0
   28.6240   23.3490   11.6010 C   0  0  0  0  0  0  0  0  0  0  0  0
   27.8070   24.5250   11.0660 C   0  0  2  0  0  0  0  0  0  0  0  0
   28.1860   25.8410   11.7290 C   0  0  0  0  0  0  0  0  0  0  0  0
   25.3950   24.8990   10.5540 N   0  0  0  0  0  4  0  0  0  0  0  0
   26.0339   24.2291   12.3749 H   0  0  0  0  0  0  0  0  0  0  0  0
   25.6933   22.0134   11.5723 H   0  0  0  0  0  0  0  0  0  0  0  0
   26.0952   22.4245    9.9045 H   0  0  0  0  0  0  0  0  0  0  0  0
   27.8293   21.4514   11.9683 H   0  0  0  0  0  0  0  0  0  0  0  0
   28.2094   21.7154   10.3585 H   0  0  0  0  0  0  0  0  0  0  0  0
   28.7301   23.4100   12.6942 H   0  0  0  0  0  0  0  0  0  0  0  0
   29.6482   23.3238   11.2006 H   0  0  0  0  0  0  0  0  0  0  0  0
   27.9811   24.7382   10.0010 H   0  0  0  0  0  0  0  0  0  0  0  0
   28.1523   25.7239   12.8222 H   0  0  0  0  0  0  0  0  0  0  0  0
   29.2029   26.1267   11.4220 H   0  0  0  0  0  0  0  0  0  0  0  0
   27.4768   26.6238   11.4220 H   0  0  0  0  0  0  0  0  0  0  0  0
   24.7801   25.4140   11.2002 H   0  0  0  0  0  0  0  0  0  0  0  0
   25.9064   25.5676    9.9605 H   0  0  0  0  0  0  0  0  0  0  0  0
   24.8264   24.2782    9.9605 H   0  0  0  0  0  0  0  0  0  0  0  0
  2  1  1  0
  3  2  1  0
  4  3  1  0
  5  1  1  0
  5  4  1  0
  6  5  1  0
  7  1  1  0
  1  8  1  1
  2  9  1  0
  2 10  1  0
  3 11  1  0
  3 12  1  0
  4 13  1  0
  4 14  1  0
  5 15  1  6
  6 16  1  0
  6 17  1  0
  6 18  1  0
  7 19  1  0
  7 20  1  0
  7 21  1  0
M  CHG  2   3   1   7   1
M  END
$$$$
=
     RDKit          3D

 35 37  0  0  0  0  0  0  0  0999 V2000
   20.7280   18.0870    4.7160 C   0  0  0  0  0  0  0  0  0  0  0  0
   20.2520   17.9710    3.4100 C   0  0  0  0  0  0  0  0  0  0  0  0
   19.5430   16.8370    3.0080 C   0  0  0  0  0  0  0  0  0  0  0  0
   19.3550   15.7780    3.9010 C   0  0  0  0  0  0  0  0  0  0  0  0
   19.8530   15.8560    5.2060 C   0  0  0  0  0  0  0  0  0  0  0  0
   20.5640   17.0090    5.5900 C   0  0  0  0  0  0  0  0  0  0  0  0
   19.6590   14.7180    6.1680 C   0  0  0  0  0  0  0  0  0  0  0  0
   18.6210   14.9190    7.0330 F   0  0  0  0  0  0  0  0  0  0  0  0
   19.3890   13.5340    5.5540 F   0  0  0  0  0  0  0  0  0  0  0  0
   20.7480   14.5010    6.9590 F   0  0  0  0  0  0  0  0  0  0  0  0
   21.5410   19.1660    5.0760 N   0  0  0  0  0  0  0  0  0  0  0  0
   18.6300   14.6640    3.5430 O   0  0  0  0  0  0  0  0  0  0  0  0
   17.2650   14.7120    3.7310 C   0  0  0  0  0  0  0  0  0  0  0  0
   16.7720   15.8070    4.4600 C   0  0  0  0  0  0  0  0  0  0  0  0
   15.4040   15.9290    4.7190 C   0  0  0  0  0  0  0  0  0  0  0  0
   14.5590   14.9300    4.2630 C   0  0  0  0  0  0  0  0  0  0  0  0
   15.0560   13.8280    3.5570 C   0  0  0  0  0  0  0  0  0  0  0  0
   16.4080   13.7020    3.2830 C   0  0  0  0  0  0  0  0  0  0  0  0
   13.9440   12.9120    3.1490 C   0  0  0  0  0  0  0  0  0  0  0  0
   12.8220   13.3680    4.0920 C   0  0  0  0  0  0  0  0  0  0  0  0
   13.0700   14.8540    4.3880 C   0  0  0  0  0  0  0  0  0  0  0  0
   20.4370   18.7811    2.6893 H   0  0  0  0  0  0  0  0  0  0  0  0
   19.1327   16.7771    1.9892 H   0  0  0  0  0  0  0  0  0  0  0  0
   20.9994   17.0624    6.5988 H   0  0  0  0  0  0  0  0  0  0  0  0
   21.8904   19.2479    6.0415 H   0  0  0  0  0  0  0  0  0  0  0  0
   21.7905   19.8789    4.3758 H   0  0  0  0  0  0  0  0  0  0  0  0
   17.4680   16.5743    4.8298 H   0  0  0  0  0  0  0  0  0  0  0  0
   15.0087   16.7950    5.2702 H   0  0  0  0  0  0  0  0  0  0  0  0
   16.7956   12.8338    2.7298 H   0  0  0  0  0  0  0  0  0  0  0  0
   13.6682   13.0575    2.0941 H   0  0  0  0  0  0  0  0  0  0  0  0
   14.1896   11.8423    3.2231 H   0  0  0  0  0  0  0  0  0  0  0  0
   11.8431   13.2363    3.6078 H   0  0  0  0  0  0  0  0  0  0  0  0
   12.8192   12.7754    5.0187 H   0  0  0  0  0  0  0  0  0  0  0  0
   12.5700   15.5007    3.6519 H   0  0  0  0  0  0  0  0  0  0  0  0
   12.6804   15.1922    5.3595 H   0  0  0  0  0  0  0  0  0  0  0  0
  2  1  2  0
  3  2  1  0
  4  3  2  0
  5  4  1  0
  6  5  2  0
  6  1  1  0
  7  5  1  0
  8  7  1  0
  9  7  1  0
 10  7  1  0
 11  1  1  0
 12  4  1  0
 13 12  1  0
 14 13  2  0
 15 14  1  0
 16 15  2  0
 17 16  1  0
 18 17  2  0
 18 13  1  0
 19 17  1  0
 20 19  1  0
 21 20  1  0
 21 16  1  0
  2 22  1  0
  3 23  1  0
  6 24  1  0
 11 25  1  0
 11 26  1  0
 14 27  1  0
 15 28  1  0
 18 29  1  0
 19 30  1  0
 19 31  1  0
 20 32  1  0
 20 33  1  0
 21 34  1  0
 21 35  1  0
M  END
$$$$
=
     RDKit          3D

 50 51  0  0  0  0  0  0  0  0999 V2000
   16.9810   15.8900    5.9040 C   0  0  2  0  0  0  0  0  0  0  0  0
   16.6330   15.7080    7.2870 O   0  0  0  0  0  0  0  0  0  0  0  0
   17.9670   17.0690    5.8540 C   0  0  0  0  0  0  0  0  0  0  0  0
   19.3460   16.5160    5.9690 N   0  0  0  0  0  4  0  0  0  0  0  0
   20.5110   17.1270    5.1950 C   0  0  0  0  0  0  0  0  0  0  0  0
   20.8120   18.5200    5.7850 C   0  0  0  0  0  0  0  0  0  0  0  0
   22.2290   18.7290    5.7440 O   0  0  0  0  0  0  0  0  0  0  0  0
   21.6970   16.1620    5.4630 C   0  0  0  0  0  0  0  0  0  0  0  0
   21.7770   15.9470    6.8850 O   0  0  0  0  0  0  0  0  0  0  0  0
   20.2100   17.1910    3.6820 C   0  0  0  0  0  0  0  0  0  0  0  0
   21.0930   18.1030    3.0400 O   0  0  0  0  0  0  0  0  0  0  0  0
   15.7520   16.1810    5.0350 C   0  0  0  0  0  0  0  0  0  0  0  0
   15.3880   15.0270    4.2200 N   0  0  0  0  0  0  0  0  0  0  0  0
   14.0940   14.5670    4.0560 C   0  0  0  0  0  0  0  0  0  0  0  0
   12.8640   15.0590    4.5320 C   0  0  0  0  0  0  0  0  0  0  0  0
   11.7010   14.3570    4.2080 C   0  0  0  0  0  0  0  0  0  0  0  0
   11.7690   13.2080    3.4360 C   0  0  0  0  0  0  0  0  0  0  0  0
   12.9840   12.7220    2.9580 C   0  0  0  0  0  0  0  0  0  0  0  0
   14.1730   13.4120    3.2710 C   0  0  0  0  0  0  0  0  0  0  0  0
   15.5490   13.2040    2.9450 C   0  0  0  0  0  0  0  0  0  0  0  0
   16.2770   14.2250    3.5380 C   0  0  0  0  0  0  0  0  0  0  0  0
   17.7450   14.4840    3.4800 C   0  0  0  0  0  0  0  0  0  0  0  0
   16.1000   12.0990    2.1070 C   0  0  0  0  0  0  0  0  0  0  0  0
   10.6390   12.5520    3.1400 F   0  0  0  0  0  0  0  0  0  0  0  0
   17.4278   14.9689    5.5015 H   0  0  0  0  0  0  0  0  0  0  0  0
   17.3488   16.0823    7.8594 H   0  0  0  0  0  0  0  0  0  0  0  0
   17.8582   17.6074    4.9010 H   0  0  0  0  0  0  0  0  0  0  0  0
   17.7659   17.7726    6.6753 H   0  0  0  0  0  0  0  0  0  0  0  0
   19.5990   16.5680    6.9661 H   0  0  0  0  0  0  0  0  0  0  0  0
   19.2516   15.5867    5.5350 H   0  0  0  0  0  0  0  0  0  0  0  0
   20.3045   19.2936    5.1900 H   0  0  0  0  0  0  0  0  0  0  0  0
   20.4499   18.5788    6.8220 H   0  0  0  0  0  0  0  0  0  0  0  0
   22.5818   18.7810    6.6676 H   0  0  0  0  0  0  0  0  0  0  0  0
   21.5242   15.2050    4.9490 H   0  0  0  0  0  0  0  0  0  0  0  0
   22.6361   16.5934    5.0862 H   0  0  0  0  0  0  0  0  0  0  0  0
   21.4740   16.7614    7.3594 H   0  0  0  0  0  0  0  0  0  0  0  0
   20.3403   16.1906    3.2437 H   0  0  0  0  0  0  0  0  0  0  0  0
   19.1749   17.5343    3.5378 H   0  0  0  0  0  0  0  0  0  0  0  0
   21.5908   18.6172    3.7240 H   0  0  0  0  0  0  0  0  0  0  0  0
   14.9053   16.4386    5.6882 H   0  0  0  0  0  0  0  0  0  0  0  0
   15.9954   17.0161    4.3616 H   0  0  0  0  0  0  0  0  0  0  0  0
   12.8200   15.9725    5.1432 H   0  0  0  0  0  0  0  0  0  0  0  0
   10.7260   14.7179    4.5674 H   0  0  0  0  0  0  0  0  0  0  0  0
   13.0153   11.8103    2.3434 H   0  0  0  0  0  0  0  0  0  0  0  0
   18.1455   14.5547    4.5021 H   0  0  0  0  0  0  0  0  0  0  0  0
   18.2420   13.6597    2.9476 H   0  0  0  0  0  0  0  0  0  0  0  0
   17.9299   15.4286    2.9476 H   0  0  0  0  0  0  0  0  0  0  0  0
   16.4953   11.3063    2.7592 H   0  0  0  0  0  0  0  0  0  0  0  0
   15.3017   11.6873    1.4720 H   0  0  0  0  0  0  0  0  0  0  0  0
   16.9092   12.4889    1.4720 H   0  0  0  0  0  0  0  0  0  0  0  0
  2  1  1  0
  3  1  1  0
  4  3  1  0
  5  4  1  0
  6  5  1  0
  7  6  1  0
  8  5  1  0
  9  8  1  0
 10  5  1  0
 11 10  1  0
 12  1  1  0
 13 12  1  0
 14 13  1  0
 15 14  2  0
 16 15  1  0
 17 16  2  0
 18 17  1  0
 19 18  2  0
 19 14  1  0
 20 19  1  0
 21 20  2  0
 21 13  1  0
 22 21  1  0
 23 20  1  0
 24 17  1  0
  1 25  1  6
  2 26  1  0
  3 27  1  0
  3 28  1  0
  4 29  1  0
  4 30  1  0
  6 31  1  0
  6 32  1  0
  7 33  1  0
  8 34  1  0
  8 35  1  0
  9 36  1  0
 10 37  1  0
 10 38  1  0
 11 39  1  0
 12 40  1  0
 12 41  1  0
 15 42  1  0
 16 43  1  0
 18 44  1  0
 22 45  1  0
 22 46  1  0
 22 47  1  0
 23 48  1  0
 23 49  1  0
 23 50  1  0
M  CHG  1   4   1
M  END
$$$$
=
     RDKit          3D

 34 36  0  0  0  0  0  0  0  0999 V2000
   18.3730   16.5950    4.7040 C   0  0  0  0  0  0  0  0  0  0  0  0
   17.3290   16.9020    5.5720 C   0  0  0  0  0  0  0  0  0  0  0  0
   16.0920   16.2630    5.4320 C   0  0  0  0  0  0  0  0  0  0  0  0
   15.9020   15.3110    4.4340 C   0  0  0  0  0  0  0  0  0  0  0  0
   16.9940   15.0520    3.6230 C   0  0  0  0  0  0  0  0  0  0  0  0
   18.2050   15.6620    3.7450 N   0  0  0  0  0  0  0  0  0  0  0  0
   14.6250   14.6400    4.2760 C   0  0  0  0  0  0  0  0  0  0  0  0
   14.6530   13.2970    4.0200 O   0  0  0  0  0  0  0  0  0  0  0  0
   13.3240   12.8850    3.9110 N   0  0  0  0  0  0  0  0  0  0  0  0
   12.6360   14.0160    4.1120 C   0  0  0  0  0  0  0  0  0  0  0  0
   13.4050   15.1280    4.3430 N   0  0  0  0  0  0  0  0  0  0  0  0
   11.1620   14.0570    4.0850 C   0  0  0  0  0  0  0  0  0  0  0  0
   21.4050   18.4970    5.3750 C   0  0  1  0  0  0  0  0  0  0  0  0
   21.4870   18.2960    3.8650 C   0  0  0  0  0  0  0  0  0  0  0  0
   20.4120   17.2360    3.5650 C   0  0  0  0  0  0  0  0  0  0  0  0
   19.6270   17.1650    4.8120 N   0  0  0  0  0  0  0  0  0  0  0  0
   19.8980   18.3360    5.6370 C   0  0  0  0  0  0  0  0  0  0  0  0
   22.1170   17.3500    6.0410 N   0  0  0  0  0  4  0  0  0  0  0  0
   17.4764   17.6469    6.3679 H   0  0  0  0  0  0  0  0  0  0  0  0
   15.2659   16.5140    6.1136 H   0  0  0  0  0  0  0  0  0  0  0  0
   16.8750   14.3028    2.8264 H   0  0  0  0  0  0  0  0  0  0  0  0
   10.7766   14.0677    5.1152 H   0  0  0  0  0  0  0  0  0  0  0  0
   10.8300   14.9647    3.5598 H   0  0  0  0  0  0  0  0  0  0  0  0
   10.7801   13.1691    3.5598 H   0  0  0  0  0  0  0  0  0  0  0  0
   21.8349   19.4442    5.7327 H   0  0  0  0  0  0  0  0  0  0  0  0
   21.2682   19.2343    3.3343 H   0  0  0  0  0  0  0  0  0  0  0  0
   22.4891   17.9840    3.5358 H   0  0  0  0  0  0  0  0  0  0  0  0
   19.7791   17.5482    2.7212 H   0  0  0  0  0  0  0  0  0  0  0  0
   20.8418   16.2649    3.2781 H   0  0  0  0  0  0  0  0  0  0  0  0
   19.3280   19.2145    5.3003 H   0  0  0  0  0  0  0  0  0  0  0  0
   19.6179   18.2343    6.6959 H   0  0  0  0  0  0  0  0  0  0  0  0
   22.0528   17.4534    7.0638 H   0  0  0  0  0  0  0  0  0  0  0  0
   21.6782   16.4623    5.7575 H   0  0  0  0  0  0  0  0  0  0  0  0
   23.1072   17.3494    5.7575 H   0  0  0  0  0  0  0  0  0  0  0  0
  2  1  2  0
  3  2  1  0
  4  3  2  0
  5  4  1  0
  6  5  2  0
  6  1  1  0
  7  4  1  0
  8  7  1  0
  9  8  1  0
 10  9  2  0
 11 10  1  0
 11  7  2  0
 12 10  1  0
 14 13  1  0
 15 14  1  0
 16 15  1  0
 16  1  1  0
 17 16  1  0
 17 13  1  0
 18 13  1  0
  2 19  1  0
  3 20  1  0
  5 21  1  0
 12 22  1  0
 12 23  1  0
 12 24  1  0
 13 25  1  6
 14 26  1  0
 14 27  1  0
 15 28  1  0
 15 29  1  0
 17 30  1  0
 17 31  1  0
 18 32  1  0
 18 33  1  0
 18 34  1  0
M  CHG  1  18   1
M  END
$$$$
=
     RDKit          3D

 26 27  0  0  0  0  0  0  0  0999 V2000
   23.5030   18.3680    6.2710 N   0  0  0  0  0  0  0  0  0  0  0  0
   22.4290   17.9380    5.5220 C   0  0  0  0  0  0  0  0  0  0  0  0
   22.2680   18.4720    4.3120 N   0  0  0  0  0  0  0  0  0  0  0  0
   21.2000   18.0470    3.6080 C   0  0  0  0  0  0  0  0  0  0  0  0
   20.2860   17.1250    4.0740 C   0  0  0  0  0  0  0  0  0  0  0  0
   20.5330   16.6580    5.3540 C   0  0  0  0  0  0  0  0  0  0  0  0
   21.5970   17.0570    6.0840 N   0  0  0  0  0  0  0  0  0  0  0  0
   19.6590   15.6100    5.9940 C   0  0  0  0  0  0  0  0  0  0  0  0
   18.2750   15.4660    5.3530 C   0  0  2  0  0  0  0  0  0  0  0  0
   18.4080   15.4660    3.8250 C   0  0  0  0  0  0  0  0  0  0  0  0
   19.0740   16.7360    3.2860 C   0  0  2  0  0  0  0  0  0  0  0  0
   17.3160   16.5310    5.8620 C   0  0  0  0  0  0  0  0  0  0  0  0
   16.3710   16.7900    4.9300 F   0  0  0  0  0  0  0  0  0  0  0  0
   17.9320   17.6940    6.1440 F   0  0  0  0  0  0  0  0  0  0  0  0
   16.6800   16.1150    6.9770 F   0  0  0  0  0  0  0  0  0  0  0  0
   19.4380   16.5130    1.9280 O   0  0  0  0  0  0  0  0  0  0  0  0
   23.6631   17.9802    7.2117 H   0  0  0  0  0  0  0  0  0  0  0  0
   24.1455   19.0772    5.8901 H   0  0  0  0  0  0  0  0  0  0  0  0
   21.0480   18.4608    2.6002 H   0  0  0  0  0  0  0  0  0  0  0  0
   20.1744   14.6409    5.9222 H   0  0  0  0  0  0  0  0  0  0  0  0
   19.4930   15.9300    7.0332 H   0  0  0  0  0  0  0  0  0  0  0  0
   17.8381   14.5007    5.6485 H   0  0  0  0  0  0  0  0  0  0  0  0
   19.0131   14.5977    3.5251 H   0  0  0  0  0  0  0  0  0  0  0  0
   17.3925   15.4212    3.4046 H   0  0  0  0  0  0  0  0  0  0  0  0
   18.3548   17.5638    3.3724 H   0  0  0  0  0  0  0  0  0  0  0  0
   20.2817   15.9961    1.8931 H   0  0  0  0  0  0  0  0  0  0  0  0
  2  1  1  0
  3  2  2  0
  4  3  1  0
  5  4  2  0
  6  5  1  0
  7  6  2  0
  7  2  1  0
  8  6  1  0
  9  8  1  0
 10  9  1  0
 11 10  1  0
 11  5  1  0
 12  9  1  0
 13 12  1  0
 14 12  1  0
 15 12  1  0
 16 11  1  0
  1 17  1  0
  1 18  1  0
  4 19  1  0
  8 20  1  0
  8 21  1  0
  9 22  1  1
 10 23  1  0
 10 24  1  0
 11 25  1  6
 16 26  1  0
M  END
$$$$
=
     RDKit          3D

 41 42  0  0  0  0  0  0  0  0999 V2000
   27.9420   27.5060   13.7820 C   0  0  2  0  0  0  0  0  0  0  0  0
   28.4980   26.6670   12.6200 C   0  0  1  0  0  0  0  0  0  0  0  0
   29.1570   26.6150   13.9810 C   0  0  2  0  0  0  0  0  0  0  0  0
   27.6970   25.5670   11.9590 C   0  0  0  0  0  0  0  0  0  0  0  0
   26.3000   25.6570   11.8070 C   0  0  0  0  0  0  0  0  0  0  0  0
   25.5500   24.6240   11.2300 C   0  0  0  0  0  0  0  0  0  0  0  0
   26.1790   23.4570   10.8140 C   0  0  0  0  0  0  0  0  0  0  0  0
   27.5460   23.3310   10.9950 C   0  0  0  0  0  0  0  0  0  0  0  0
   28.2950   24.3560   11.5690 C   0  0  0  0  0  0  0  0  0  0  0  0
   28.1650   22.2030   10.6230 F   0  0  0  0  0  0  0  0  0  0  0  0
   29.0590   25.0760   14.9300 S   0  0  0  0  0  6  0  0  0  0  0  0
   30.1950   24.2990   14.4800 O   0  0  0  0  0  0  0  0  0  0  0  0
   27.7150   24.5510   14.9020 O   0  0  0  0  0  0  0  0  0  0  0  0
   29.4030   25.5890   16.5900 C   0  0  0  0  0  0  0  0  0  0  0  0
   26.5900   27.1990   14.3990 C   0  0  0  0  0  0  0  0  0  0  0  0
   26.3300   28.2500   15.3430 O   0  0  0  0  0  0  0  0  0  0  0  0
   27.2190   28.6050   17.5940 C   0  0  0  0  0  0  0  0  0  0  0  0
   26.3210   27.7720   16.6990 C   0  0  0  0  0  0  0  0  0  0  0  0
   28.1890   28.9980   13.7180 C   0  0  0  0  0  0  0  0  0  0  0  0
   29.1250   29.4810   14.7610 N   0  0  0  0  0  4  0  0  0  0  0  0
   28.8781   26.8470   11.6036 H   0  0  0  0  0  0  0  0  0  0  0  0
   30.1671   26.7947   14.3778 H   0  0  0  0  0  0  0  0  0  0  0  0
   25.7827   26.5646   12.1513 H   0  0  0  0  0  0  0  0  0  0  0  0
   24.4628   24.7368   11.1062 H   0  0  0  0  0  0  0  0  0  0  0  0
   25.6001   22.6459   10.3482 H   0  0  0  0  0  0  0  0  0  0  0  0
   29.3754   24.2149   11.7200 H   0  0  0  0  0  0  0  0  0  0  0  0
   28.9329   24.8879   17.2953 H   0  0  0  0  0  0  0  0  0  0  0  0
   30.4908   25.5986   16.7528 H   0  0  0  0  0  0  0  0  0  0  0  0
   28.9989   26.5991   16.7528 H   0  0  0  0  0  0  0  0  0  0  0  0
   25.8114   27.1835   13.6221 H   0  0  0  0  0  0  0  0  0  0  0  0
   26.5877   26.2133   14.8872 H   0  0  0  0  0  0  0  0  0  0  0  0
   26.9875   28.3902   18.6477 H   0  0  0  0  0  0  0  0  0  0  0  0
   28.2711   28.3559   17.3916 H   0  0  0  0  0  0  0  0  0  0  0  0
   27.0495   29.6729   17.3916 H   0  0  0  0  0  0  0  0  0  0  0  0
   25.2922   27.8165   17.0858 H   0  0  0  0  0  0  0  0  0  0  0  0
   26.6987   26.7389   16.7007 H   0  0  0  0  0  0  0  0  0  0  0  0
   28.6101   29.2405   12.7312 H   0  0  0  0  0  0  0  0  0  0  0  0
   27.2235   29.4965   13.8895 H   0  0  0  0  0  0  0  0  0  0  0  0
   28.7346   29.2795   15.6926 H   0  0  0  0  0  0  0  0  0  0  0  0
   30.0311   29.0022   14.6576 H   0  0  0  0  0  0  0  0  0  0  0  0
   29.2598   30.4969   14.6576 H   0  0  0  0  0  0  0  0  0  0  0  0
  2  1  1  0
  3  2  1  0
  3  1  1  0
  4  2  1  0
  5  4  2  0
  6  5  1  0
  7  6  2  0
  8  7  1  0
  9  8  2  0
  9  4  1  0
 10  8  1  0
 11  3  1  0
 12 11  2  0
 13 11  2  0
 14 11  1  0
  1 15  1  1
 16 15  1  0
 18 16  1  0
 18 17  1  0
 19  1  1  0
 20 19  1  0
  2 21  1  6
  3 22  1  6
  5 23  1  0
  6 24  1  0
  7 25  1  0
  9 26  1  0
 14 27  1  0
 14 28  1  0
 14 29  1  0
 15 30  1  0
 15 31  1  0
 17 32  1  0
 17 33  1  0
 17 34  1  0
 18 35  1  0
 18 36  1  0
 19 37  1  0
 19 38  1  0
 20 39  1  0
 20 40  1  0
 20 41  1  0
M  CHG  1  20   1
M  END
$$$$
=
     RDKit          3D

 27 27  0  0  0  0  0  0  0  0999 V2000
   19.8430   16.8270    5.3310 C   0  0  1  0  0  0  0  0  0  0  0  0
   19.7300   18.3500    5.4110 C   0  0  0  0  0  0  0  0  0  0  0  0
   21.2130   16.3720    5.8400 C   0  0  0  0  0  0  0  0  0  0  0  0
   21.0040   14.9350    6.2380 N   0  0  0  0  0  4  0  0  0  0  0  0
   19.5340   14.7200    6.4890 C   0  0  0  0  0  0  0  0  0  0  0  0
   18.9080   16.0940    6.3040 C   0  0  2  0  0  0  0  0  0  0  0  0
   17.4650   15.9450    5.8870 C   0  0  0  0  0  0  0  0  0  0  0  0
   16.7230   15.5960    6.9570 F   0  0  0  0  0  0  0  0  0  0  0  0
   16.9850   17.0980    5.3950 F   0  0  0  0  0  0  0  0  0  0  0  0
   17.3220   14.9850    4.9570 F   0  0  0  0  0  0  0  0  0  0  0  0
   19.6990   16.3140    3.9010 C   0  0  0  0  0  0  0  0  0  0  0  0
   20.0450   15.1790    3.5880 O   0  0  0  0  0  0  0  0  0  0  0  0
   19.7810   17.4770    1.8650 C   0  0  0  0  0  0  0  0  0  0  0  0
   19.0930   17.2080    3.0920 O   0  0  0  0  0  0  0  0  0  0  0  0
   19.7069   18.6611    6.4659 H   0  0  0  0  0  0  0  0  0  0  0  0
   20.5966   18.8087    4.9123 H   0  0  0  0  0  0  0  0  0  0  0  0
   18.8052   18.6758    4.9123 H   0  0  0  0  0  0  0  0  0  0  0  0
   21.9695   16.4501    5.0453 H   0  0  0  0  0  0  0  0  0  0  0  0
   21.5779   16.9900    6.6736 H   0  0  0  0  0  0  0  0  0  0  0  0
   21.3219   14.3143    5.4800 H   0  0  0  0  0  0  0  0  0  0  0  0
   21.5433   14.7215    7.0892 H   0  0  0  0  0  0  0  0  0  0  0  0
   19.1175   14.0030    5.7662 H   0  0  0  0  0  0  0  0  0  0  0  0
   19.3380   14.3035    7.4880 H   0  0  0  0  0  0  0  0  0  0  0  0
   18.8334   16.7021    7.2176 H   0  0  0  0  0  0  0  0  0  0  0  0
   20.7846   17.8694    2.0858 H   0  0  0  0  0  0  0  0  0  0  0  0
   19.8704   16.5476    1.2834 H   0  0  0  0  0  0  0  0  0  0  0  0
   19.2163   18.2206    1.2834 H   0  0  0  0  0  0  0  0  0  0  0  0
  2  1  1  0
  3  1  1  0
  4  3  1  0
  5  4  1  0
  6  5  1  0
  6  1  1  0
  7  6  1  0
  8  7  1  0
  9  7  1  0
 10  7  1  0
  1 11  1  6
 12 11  2  0
 14 11  1  0
 14 13  1  0
  2 15  1  0
  2 16  1  0
  2 17  1  0
  3 18  1  0
  3 19  1  0
  4 20  1  0
  4 21  1  0
  5 22  1  0
  5 23  1  0
  6 24  1  1
 13 25  1  0
 13 26  1  0
 13 27  1  0
M  CHG  1   4   1
M  END
$$$$
=
     RDKit          3D

 36 36  0  0  0  0  0  0  0  0999 V2000
   16.9990   15.0610    3.6350 N   0  0  0  0  0  4  0  0  0  0  0  0
   16.8970   16.0170    4.8420 C   0  0  0  0  0  0  0  0  0  0  0  0
   18.1310   16.9710    4.9730 C   0  0  0  0  0  0  0  0  0  0  0  0
   19.4780   16.3160    4.6100 N   0  0  0  0  0  4  0  0  0  0  0  0
   19.3860   14.7750    4.6480 C   0  0  0  0  0  0  0  0  0  0  0  0
   18.2790   14.2040    3.7000 C   0  0  0  0  0  0  0  0  0  0  0  0
   15.6820   14.2140    3.5040 C   0  0  0  0  0  0  0  0  0  0  0  0
   15.8270   12.9100    2.6540 C   0  0  0  0  0  0  0  0  0  0  0  0
   14.5850   12.0790    2.6260 N   0  0  0  0  0  4  0  0  0  0  0  0
   20.6770   16.8080    5.4970 C   0  0  0  0  0  0  0  0  0  0  0  0
   20.8520   18.3600    5.5530 C   0  0  0  0  0  0  0  0  0  0  0  0
   22.2820   18.7940    5.5790 N   0  0  0  0  0  4  0  0  0  0  0  0
   17.0853   15.6152    2.7711 H   0  0  0  0  0  0  0  0  0  0  0  0
   15.9907   16.6299    4.7280 H   0  0  0  0  0  0  0  0  0  0  0  0
   16.8624   15.3974    5.7503 H   0  0  0  0  0  0  0  0  0  0  0  0
   17.9746   17.8309    4.3051 H   0  0  0  0  0  0  0  0  0  0  0  0
   18.1957   17.2600    6.0324 H   0  0  0  0  0  0  0  0  0  0  0  0
   19.6768   16.6194    3.6460 H   0  0  0  0  0  0  0  0  0  0  0  0
   20.3574   14.3584    4.3432 H   0  0  0  0  0  0  0  0  0  0  0  0
   19.1194   14.4869    5.6756 H   0  0  0  0  0  0  0  0  0  0  0  0
   18.6975   14.1315    2.6853 H   0  0  0  0  0  0  0  0  0  0  0  0
   17.9846   13.2268    4.1104 H   0  0  0  0  0  0  0  0  0  0  0  0
   15.3553   13.9296    4.5151 H   0  0  0  0  0  0  0  0  0  0  0  0
   14.9546   14.8493    2.9775 H   0  0  0  0  0  0  0  0  0  0  0  0
   16.0806   13.1930    1.6217 H   0  0  0  0  0  0  0  0  0  0  0  0
   16.6142   12.3019    3.1236 H   0  0  0  0  0  0  0  0  0  0  0  0
   14.2846   11.8780    3.5905 H   0  0  0  0  0  0  0  0  0  0  0  0
   13.8396   12.5921    2.1341 H   0  0  0  0  0  0  0  0  0  0  0  0
   14.7749   11.1942    2.1341 H   0  0  0  0  0  0  0  0  0  0  0  0
   20.5170   16.4437    6.5225 H   0  0  0  0  0  0  0  0  0  0  0  0
   21.5913   16.4081    5.0343 H   0  0  0  0  0  0  0  0  0  0  0  0
   20.3705   18.7977    4.6661 H   0  0  0  0  0  0  0  0  0  0  0  0
   20.3898   18.7060    6.4893 H   0  0  0  0  0  0  0  0  0  0  0  0
   22.5943   18.8888    6.5559 H   0  0  0  0  0  0  0  0  0  0  0  0
   22.8628   18.0914    5.0995 H   0  0  0  0  0  0  0  0  0  0  0  0
   22.3743   19.7009    5.0995 H   0  0  0  0  0  0  0  0  0  0  0  0
  2  1  1  0
  3  2  1  0
  4  3  1  0
  5  4  1  0
  6  5  1  0
  6  1  1  0
  7  1  1  0
  8  7  1  0
  9  8  1  0
 10  4  1  0
 11 10  1  0
 12 11  1  0
  1 13  1  0
  2 14  1  0
  2 15  1  0
  3 16  1  0
  3 17  1  0
  4 18  1  0
  5 19  1  0
  5 20  1  0
  6 21  1  0
  6 22  1  0
  7 23  1  0
  7 24  1  0
  8 25  1  0
  8 26  1  0
  9 27  1  0
  9 28  1  0
  9 29  1  0
 10 30  1  0
 10 31  1  0
 11 32  1  0
 11 33  1  0
 12 34  1  0
 12 35  1  0
 12 36  1  0
M  CHG  4   1   1   4   1   9   1  12   1
M  END
$$$$
=
     RDKit          3D

 34 34  0  0  0  0  0  0  0  0999 V2000
   18.5300   15.5780    5.5910 C   0  0  1  0  0  0  0  0  0  0  0  0
   19.5570   14.6560    6.2710 C   0  0  0  0  0  0  0  0  0  0  0  0
   20.9330   15.2990    6.4360 C   0  0  0  0  0  0  0  0  0  0  0  0
   21.4600   15.9100    5.1430 C   0  0  0  0  0  0  0  0  0  0  0  0
   20.4130   16.7200    4.4590 N   0  0  0  0  0  4  0  0  0  0  0  0
   19.1420   16.9340    5.2160 C   0  0  0  0  0  0  0  0  0  0  0  0
   16.6490   14.7620    4.1200 N   0  0  0  0  0  0  0  0  0  0  0  0
   18.0100   14.9200    4.3140 C   0  0  0  0  0  0  0  0  0  0  0  0
   18.8490   14.4810    3.5160 O   0  0  0  0  0  0  0  0  0  0  0  0
   15.9230   12.6370    3.0750 C   0  0  0  0  0  0  0  0  0  0  0  0
   16.2070   14.1180    2.8760 C   0  0  0  0  0  0  0  0  0  0  0  0
   15.5860   15.2750    4.9970 C   0  0  0  0  0  0  0  0  0  0  0  0
   14.3750   15.7640    4.2160 C   0  0  0  0  0  0  0  0  0  0  0  0
   17.7132   15.7424    6.3092 H   0  0  0  0  0  0  0  0  0  0  0  0
   19.1769   14.3851    7.2671 H   0  0  0  0  0  0  0  0  0  0  0  0
   19.6847   13.7771    5.6219 H   0  0  0  0  0  0  0  0  0  0  0  0
   20.8614   16.0917    7.1953 H   0  0  0  0  0  0  0  0  0  0  0  0
   21.6341   14.5066    6.7369 H   0  0  0  0  0  0  0  0  0  0  0  0
   22.3179   16.5576    5.3767 H   0  0  0  0  0  0  0  0  0  0  0  0
   21.7601   15.0927    4.4707 H   0  0  0  0  0  0  0  0  0  0  0  0
   20.8160   17.6455    4.2543 H   0  0  0  0  0  0  0  0  0  0  0  0
   20.1478   16.1778    3.6244 H   0  0  0  0  0  0  0  0  0  0  0  0
   18.4329   17.4946    4.5892 H   0  0  0  0  0  0  0  0  0  0  0  0
   19.3549   17.5040    6.1324 H   0  0  0  0  0  0  0  0  0  0  0  0
   15.8801   12.4132    4.1511 H   0  0  0  0  0  0  0  0  0  0  0  0
   14.9597   12.3825    2.6089 H   0  0  0  0  0  0  0  0  0  0  0  0
   16.7238   12.0442    2.6089 H   0  0  0  0  0  0  0  0  0  0  0  0
   16.9957   14.2303    2.1175 H   0  0  0  0  0  0  0  0  0  0  0  0
   15.2746   14.6039    2.5527 H   0  0  0  0  0  0  0  0  0  0  0  0
   15.2675   14.4691    5.6746 H   0  0  0  0  0  0  0  0  0  0  0  0
   15.9945   16.1316    5.5533 H   0  0  0  0  0  0  0  0  0  0  0  0
   13.5896   16.0811    4.9179 H   0  0  0  0  0  0  0  0  0  0  0  0
   14.6663   16.6150    3.5828 H   0  0  0  0  0  0  0  0  0  0  0  0
   13.9937   14.9494    3.5828 H   0  0  0  0  0  0  0  0  0  0  0  0
  2  1  1  0
  3  2  1  0
  4  3  1  0
  5  4  1  0
  6  1  1  0
  6  5  1  0
  8  7  1  0
  8  1  1  0
  9  8  2  0
 11 10  1  0
 11  7  1  0
 12  7  1  0
 13 12  1  0
  1 14  1  1
  2 15  1  0
  2 16  1  0
  3 17  1  0
  3 18  1  0
  4 19  1  0
  4 20  1  0
  5 21  1  0
  5 22  1  0
  6 23  1  0
  6 24  1  0
 10 25  1  0
 10 26  1  0
 10 27  1  0
 11 28  1  0
 11 29  1  0
 12 30  1  0
 12 31  1  0
 13 32  1  0
 13 33  1  0
 13 34  1  0
M  CHG  1   5   1
M  END
$$$$
=
     RDKit          3D

 21 21  0  0  0  0  0  0  0  0999 V2000
   16.5740   14.8780    3.7630 C   0  0  0  0  0  0  0  0  0  0  0  0
   16.1480   13.6860    3.1700 C   0  0  0  0  0  0  0  0  0  0  0  0
   14.8440   13.1980    3.3670 C   0  0  0  0  0  0  0  0  0  0  0  0
   13.9180   13.9760    4.0870 C   0  0  0  0  0  0  0  0  0  0  0  0
   14.3470   15.1680    4.6880 C   0  0  0  0  0  0  0  0  0  0  0  0
   15.6600   15.6020    4.5290 C   0  0  0  0  0  0  0  0  0  0  0  0
   16.0300   16.7490    5.1170 F   0  0  0  0  0  0  0  0  0  0  0  0
   12.4830   13.5560    4.2440 C   0  0  0  0  0  0  0  0  0  0  0  0
   14.4390   12.0550    2.6580 N   0  0  0  0  0  0  0  0  0  0  0  0
   18.9260   14.5860    3.9930 C   0  0  0  0  0  0  0  0  0  0  0  0
   17.8250   15.4210    3.6590 O   0  0  0  0  0  0  0  0  0  0  0  0
   16.8463   13.1188    2.5370 H   0  0  0  0  0  0  0  0  0  0  0  0
   13.6427   15.7629    5.2879 H   0  0  0  0  0  0  0  0  0  0  0  0
   12.2370   13.4840    5.3137 H   0  0  0  0  0  0  0  0  0  0  0  0
   11.8288   14.3003    3.7666 H   0  0  0  0  0  0  0  0  0  0  0  0
   12.3333   12.5764    3.7666 H   0  0  0  0  0  0  0  0  0  0  0  0
   13.4885   11.6794    2.7861 H   0  0  0  0  0  0  0  0  0  0  0  0
   15.0925   11.5925    2.0100 H   0  0  0  0  0  0  0  0  0  0  0  0
   19.0158   14.5179    5.0872 H   0  0  0  0  0  0  0  0  0  0  0  0
   18.7643   13.5814    3.5751 H   0  0  0  0  0  0  0  0  0  0  0  0
   19.8498   15.0126    3.5751 H   0  0  0  0  0  0  0  0  0  0  0  0
  2  1  2  0
  3  2  1  0
  4  3  2  0
  5  4  1  0
  6  5  2  0
  6  1  1  0
  7  6  1  0
  8  4  1  0
  9  3  1  0
 11 10  1  0
 11  1  1  0
  2 12  1  0
  5 13  1  0
  8 14  1  0
  8 15  1  0
  8 16  1  0
  9 17  1  0
  9 18  1  0
 10 19  1  0
 10 20  1  0
 10 21  1  0
M  END
$$$$
=
     RDKit          3D

 38 40  0  0  0  0  0  0  0  0999 V2000
   16.7860   15.7750    6.8620 O   0  0  0  0  0  0  0  0  0  0  0  0
   17.0800   16.4810    5.8990 C   0  0  0  0  0  0  0  0  0  0  0  0
   17.0780   16.0910    4.5710 N   0  0  0  0  0  0  0  0  0  0  0  0
   16.7550   14.8290    4.0100 C   0  0  0  0  0  0  0  0  0  0  0  0
   17.7550   13.9770    3.5220 C   0  0  0  0  0  0  0  0  0  0  0  0
   17.4360   12.7450    2.9590 C   0  0  0  0  0  0  0  0  0  0  0  0
   16.1090   12.3430    2.8720 C   0  0  0  0  0  0  0  0  0  0  0  0
   15.0800   13.1640    3.3450 C   0  0  0  0  0  0  0  0  0  0  0  0
   15.3800   14.4260    3.9260 C   0  0  0  0  0  0  0  0  0  0  0  0
   14.2760   15.1930    4.3860 C   0  0  0  0  0  0  0  0  0  0  0  0
   12.9570   14.7410    4.2740 C   0  0  0  0  0  0  0  0  0  0  0  0
   12.6930   13.5070    3.7010 C   0  0  0  0  0  0  0  0  0  0  0  0
   13.7480   12.7250    3.2400 C   0  0  0  0  0  0  0  0  0  0  0  0
   17.5830   17.9030    6.1280 C   0  0  0  0  0  0  0  0  0  0  0  0
   18.6660   18.4800    4.7800 S   0  0  0  0  0  0  0  0  0  0  0  0
   20.2030   17.7560    5.2970 C   0  0  0  0  0  0  0  0  0  0  0  0
   20.1980   16.5080    5.7840 N   0  0  0  0  0  0  0  0  0  0  0  0
   21.3730   16.0010    6.1560 C   0  0  0  0  0  0  0  0  0  0  0  0
   22.5490   16.7120    6.0470 C   0  0  0  0  0  0  0  0  0  0  0  0
   22.4580   17.9840    5.5260 C   0  0  0  0  0  0  0  0  0  0  0  0
   21.2950   18.5160    5.1470 N   0  0  0  0  0  0  0  0  0  0  0  0
   23.6060   18.7720    5.3830 N   0  0  0  0  0  0  0  0  0  0  0  0
   21.3760   14.7010    6.6740 N   0  0  0  0  0  0  0  0  0  0  0  0
   17.3491   16.8195    3.8953 H   0  0  0  0  0  0  0  0  0  0  0  0
   18.8085   14.2870    3.5850 H   0  0  0  0  0  0  0  0  0  0  0  0
   18.2349   12.0891    2.5827 H   0  0  0  0  0  0  0  0  0  0  0  0
   15.8646   11.3676    2.4259 H   0  0  0  0  0  0  0  0  0  0  0  0
   14.4647   16.1745    4.8453 H   0  0  0  0  0  0  0  0  0  0  0  0
   12.1289   15.3652    4.6409 H   0  0  0  0  0  0  0  0  0  0  0  0
   11.6570   13.1482    3.6112 H   0  0  0  0  0  0  0  0  0  0  0  0
   13.5362   11.7460    2.7854 H   0  0  0  0  0  0  0  0  0  0  0  0
   16.7168   18.5773    6.1990 H   0  0  0  0  0  0  0  0  0  0  0  0
   18.1719   17.9058    7.0571 H   0  0  0  0  0  0  0  0  0  0  0  0
   23.5128   16.2846    6.3607 H   0  0  0  0  0  0  0  0  0  0  0  0
   23.5329   19.7225    4.9929 H   0  0  0  0  0  0  0  0  0  0  0  0
   24.5238   18.4014    5.6678 H   0  0  0  0  0  0  0  0  0  0  0  0
   22.2611   14.2684    6.9744 H   0  0  0  0  0  0  0  0  0  0  0  0
   20.4931   14.1768    6.7548 H   0  0  0  0  0  0  0  0  0  0  0  0
  2  1  2  0
  3  2  1  0
  4  3  1  0
  5  4  2  0
  6  5  1  0
  7  6  2  0
  8  7  1  0
  9  8  2  0
  9  4  1  0
 10  9  1  0
 11 10  2  0
 12 11  1  0
 13 12  2  0
 13  8  1  0
 14  2  1  0
 15 14  1  0
 16 15  1  0
 17 16  2  0
 18 17  1  0
 19 18  2  0
 20 19  1  0
 21 16  1  0
 21 20  2  0
 22 20  1  0
 23 18  1  0
  3 24  1  0
  5 25  1  0
  6 26  1  0
  7 27  1  0
 10 28  1  0
 11 29  1  0
 12 30  1  0
 13 31  1  0
 14 32  1  0
 14 33  1  0
 19 34  1  0
 22 35  1  0
 22 36  1  0
 23 37  1  0
 23 38  1  0
M  END
$$$$
=
     RDKit          3D

 20 20  0  0  0  0  0  0  0  0999 V2000
   20.3090   17.8400    4.2780 C   0  0  0  0  0  0  0  0  0  0  0  0
   19.5980   18.3490    5.3700 C   0  0  0  0  0  0  0  0  0  0  0  0
   18.3600   17.8000    5.7090 C   0  0  0  0  0  0  0  0  0  0  0  0
   17.8500   16.7430    4.9540 C   0  0  0  0  0  0  0  0  0  0  0  0
   18.5470   16.2320    3.8990 N   0  0  0  0  0  0  0  0  0  0  0  0
   19.7320   16.7880    3.5780 C   0  0  0  0  0  0  0  0  0  0  0  0
   16.5070   16.1300    5.3470 C   0  0  0  0  0  0  0  0  0  0  0  0
   15.4600   16.9300    4.9920 F   0  0  0  0  0  0  0  0  0  0  0  0
   16.3710   15.8940    6.6800 F   0  0  0  0  0  0  0  0  0  0  0  0
   16.2830   14.9350    4.7280 F   0  0  0  0  0  0  0  0  0  0  0  0
   21.6530   18.3700    3.8980 C   0  0  0  0  0  0  0  0  0  0  0  0
   22.3770   18.9190    5.0680 N   0  0  0  0  0  4  0  0  0  0  0  0
   20.0132   19.1795    5.9599 H   0  0  0  0  0  0  0  0  0  0  0  0
   17.7919   18.1969    6.5632 H   0  0  0  0  0  0  0  0  0  0  0  0
   20.2745   16.3848    2.7102 H   0  0  0  0  0  0  0  0  0  0  0  0
   22.2476   17.5538    3.4618 H   0  0  0  0  0  0  0  0  0  0  0  0
   21.5077   19.1837    3.1722 H   0  0  0  0  0  0  0  0  0  0  0  0
   21.9337   18.5828    5.9348 H   0  0  0  0  0  0  0  0  0  0  0  0
   23.3585   18.6078    5.0414 H   0  0  0  0  0  0  0  0  0  0  0  0
   22.3422   19.9481    5.0414 H   0  0  0  0  0  0  0  0  0  0  0  0
  2  1  2  0
  3  2  1  0
  4  3  2  0
  5  4  1  0
  6  5  2  0
  6  1  1  0
  7  4  1  0
  8  7  1  0
  9  7  1  0
 10  7  1  0
 11  1  1  0
 12 11  1  0
  2 13  1  0
  3 14  1  0
  6 15  1  0
 11 16  1  0
 11 17  1  0
 12 18  1  0
 12 19  1  0
 12 20  1  0
M  CHG  1  12   1
M  END
$$$$
=
     RDKit          3D

 36 38  0  0  0  0  0  0  0  0999 V2000
   30.5620   24.4940   16.5620 C   0  0  0  0  0  0  0  0  0  0  0  0
   30.1860   24.2450   15.1970 N   0  0  0  0  0  0  0  0  0  0  0  0
   29.4590   25.1020   14.4050 C   0  0  0  0  0  0  0  0  0  0  0  0
   29.2590   26.3470   14.7940 N   0  0  0  0  0  0  0  0  0  0  0  0
   28.5390   27.2120   13.9660 C   0  0  0  0  0  0  0  0  0  0  0  0
   28.0000   26.8290   12.7950 C   0  0  0  0  0  0  0  0  0  0  0  0
   28.1830   25.5280   12.3760 N   0  0  0  0  0  0  0  0  0  0  0  0
   28.9050   24.6470   13.1440 C   0  0  0  0  0  0  0  0  0  0  0  0
   28.9400   23.4360   12.4790 C   0  0  0  0  0  0  0  0  0  0  0  0
   28.2070   23.5950   11.2760 C   0  0  0  0  0  0  0  0  0  0  0  0
   27.7510   24.8950   11.2410 C   0  0  0  0  0  0  0  0  0  0  0  0
   28.4010   28.6430   14.4710 C   0  0  2  0  0  0  0  0  0  0  0  0
   29.6810   29.0560   15.2370 C   0  0  0  0  0  0  0  0  0  0  0  0
   29.3870   29.6470   16.6150 C   0  0  0  0  0  0  0  0  0  0  0  0
   28.5010   28.7460   17.4690 C   0  0  0  0  0  0  0  0  0  0  0  0
   27.4230   28.1160   16.6580 N   0  0  0  0  0  4  0  0  0  0  0  0
   27.1440   28.7740   15.3450 C   0  0  0  0  0  0  0  0  0  0  0  0
   29.8369   24.0138   17.2355 H   0  0  0  0  0  0  0  0  0  0  0  0
   31.5643   24.0805   16.7475 H   0  0  0  0  0  0  0  0  0  0  0  0
   30.5725   25.5782   16.7475 H   0  0  0  0  0  0  0  0  0  0  0  0
   30.4854   23.3527   14.7786 H   0  0  0  0  0  0  0  0  0  0  0  0
   27.4245   27.5395   12.1834 H   0  0  0  0  0  0  0  0  0  0  0  0
   29.4431   22.5191   12.8198 H   0  0  0  0  0  0  0  0  0  0  0  0
   28.0341   22.8231   10.5116 H   0  0  0  0  0  0  0  0  0  0  0  0
   27.1455   25.3457   10.4408 H   0  0  0  0  0  0  0  0  0  0  0  0
   28.2850   29.3272   13.6175 H   0  0  0  0  0  0  0  0  0  0  0  0
   30.3153   28.1665   15.3651 H   0  0  0  0  0  0  0  0  0  0  0  0
   30.1822   29.8356   14.6445 H   0  0  0  0  0  0  0  0  0  0  0  0
   30.3404   29.8027   17.1411 H   0  0  0  0  0  0  0  0  0  0  0  0
   28.8462   30.5924   16.4608 H   0  0  0  0  0  0  0  0  0  0  0  0
   29.1208   27.9549   17.9163 H   0  0  0  0  0  0  0  0  0  0  0  0
   28.0311   29.3626   18.2494 H   0  0  0  0  0  0  0  0  0  0  0  0
   27.6931   27.1393   16.4735 H   0  0  0  0  0  0  0  0  0  0  0  0
   26.5594   28.2077   17.2118 H   0  0  0  0  0  0  0  0  0  0  0  0
   26.9083   29.8368   15.5028 H   0  0  0  0  0  0  0  0  0  0  0  0
   26.2849   28.2949   14.8526 H   0  0  0  0  0  0  0  0  0  0  0  0
  2  1  1  0
  3  2  1  0
  4  3  2  0
  5  4  1  0
  6  5  2  0
  7  6  1  0
  8  7  1  0
  8  3  1  0
  9  8  2  0
 10  9  1  0
 11 10  2  0
 11  7  1  0
 12  5  1  0
 13 12  1  0
 14 13  1  0
 15 14  1  0
 16 15  1  0
 17 12  1  0
 17 16  1  0
  1 18  1  0
  1 19  1  0
  1 20  1  0
  2 21  1  0
  6 22  1  0
  9 23  1  0
 10 24  1  0
 11 25  1  0
 12 26  1  6
 13 27  1  0
 13 28  1  0
 14 29  1  0
 14 30  1  0
 15 31  1  0
 15 32  1  0
 16 33  1  0
 16 34  1  0
 17 35  1  0
 17 36  1  0
M  CHG  1  16   1
M  END
$$$$
=
     RDKit          3D

 40 40  0  0  0  0  0  0  0  0999 V2000
   18.4910   16.6300    5.0190 C   0  0  0  0  0  0  0  0  0  0  0  0
   18.3690   17.6960    5.6260 O   0  0  0  0  0  0  0  0  0  0  0  0
   17.5500   15.6360    5.0000 N   0  0  0  0  0  0  0  0  0  0  0  0
   19.7990   16.3740    4.2510 C   0  0  2  0  0  0  0  0  0  0  0  0
   19.6970   14.9910    3.6480 N   0  0  0  0  0  4  0  0  0  0  0  0
   21.0290   16.3810    5.1670 C   0  0  0  0  0  0  0  0  0  0  0  0
   22.8480   18.0030    5.9240 C   0  0  0  0  0  0  0  0  0  0  0  0
   22.1840   17.3060    4.7360 C   0  0  0  0  0  0  0  0  0  0  0  0
   21.6620   18.3560    3.7500 C   0  0  0  0  0  0  0  0  0  0  0  0
   16.2490   15.7880    5.6350 C   0  0  0  0  0  0  0  0  0  0  0  0
   15.2070   15.6780    4.5270 C   0  0  1  0  0  0  0  0  0  0  0  0
   15.6360   14.8080    3.3180 C   0  0  0  0  0  0  0  0  0  0  0  0
   14.8690   13.6250    3.9590 C   0  0  1  0  0  0  0  0  0  0  0  0
   14.0370   14.6760    4.7320 C   0  0  0  0  0  0  0  0  0  0  0  0
   14.1050   12.7210    3.0120 C   0  0  0  0  0  0  0  0  0  0  0  0
   17.7698   14.7513    4.5205 H   0  0  0  0  0  0  0  0  0  0  0  0
   19.9231   17.1710    3.5031 H   0  0  0  0  0  0  0  0  0  0  0  0
   19.6454   14.2908    4.4016 H   0  0  0  0  0  0  0  0  0  0  0  0
   18.8494   14.9319    3.0658 H   0  0  0  0  0  0  0  0  0  0  0  0
   20.5268   14.8082    3.0658 H   0  0  0  0  0  0  0  0  0  0  0  0
   20.7013   16.6954    6.1689 H   0  0  0  0  0  0  0  0  0  0  0  0
   21.4352   15.3595    5.1277 H   0  0  0  0  0  0  0  0  0  0  0  0
   22.4514   17.5867    6.8618 H   0  0  0  0  0  0  0  0  0  0  0  0
   23.9354   17.8423    5.8824 H   0  0  0  0  0  0  0  0  0  0  0  0
   22.6348   19.0813    5.8824 H   0  0  0  0  0  0  0  0  0  0  0  0
   22.9473   16.6764    4.2554 H   0  0  0  0  0  0  0  0  0  0  0  0
   21.2399   19.2050    4.3078 H   0  0  0  0  0  0  0  0  0  0  0  0
   22.4899   18.7083    3.1171 H   0  0  0  0  0  0  0  0  0  0  0  0
   20.8814   17.9086    3.1171 H   0  0  0  0  0  0  0  0  0  0  0  0
   16.0955   14.9937    6.3804 H   0  0  0  0  0  0  0  0  0  0  0  0
   16.1728   16.7536    6.1564 H   0  0  0  0  0  0  0  0  0  0  0  0
   15.0098   16.7576    4.4523 H   0  0  0  0  0  0  0  0  0  0  0  0
   15.2333   15.1417    2.3503 H   0  0  0  0  0  0  0  0  0  0  0  0
   16.6925   14.7144    3.0264 H   0  0  0  0  0  0  0  0  0  0  0  0
   15.3950   12.8101    4.4779 H   0  0  0  0  0  0  0  0  0  0  0  0
   13.0967   14.9655    4.2400 H   0  0  0  0  0  0  0  0  0  0  0  0
   13.6327   14.4638    5.7328 H   0  0  0  0  0  0  0  0  0  0  0  0
   13.5020   12.0075    3.5927 H   0  0  0  0  0  0  0  0  0  0  0  0
   13.4433   13.3295    2.3780 H   0  0  0  0  0  0  0  0  0  0  0  0
   14.8153   12.1700    2.3780 H   0  0  0  0  0  0  0  0  0  0  0  0
  2  1  2  0
  3  1  1  0
  4  1  1  0
  5  4  1  0
  6  4  1  0
  8  6  1  0
  8  7  1  0
  9  8  1  0
 10  3  1  0
 11 10  1  0
 12 11  1  0
 13 12  1  0
 14 13  1  0
 14 11  1  0
 15 13  1  0
  3 16  1  0
  4 17  1  6
  5 18  1  0
  5 19  1  0
  5 20  1  0
  6 21  1  0
  6 22  1  0
  7 23  1  0
  7 24  1  0
  7 25  1  0
  8 26  1  0
  9 27  1  0
  9 28  1  0
  9 29  1  0
 10 30  1  0
 10 31  1  0
 11 32  1  6
 12 33  1  0
 12 34  1  0
 13 35  1  1
 14 36  1  0
 14 37  1  0
 15 38  1  0
 15 39  1  0
 15 40  1  0
M  CHG  1   5   1
M  END
$$$$
=
     RDKit          3D

 39 40  0  0  0  0  0  0  0  0999 V2000
   28.7030   27.0730   15.8320 C   0  0  0  0  0  0  0  0  0  0  0  0
   28.1160   28.4430   15.3950 C   0  0  0  0  0  0  0  0  0  0  0  0
   27.6060   29.3250   16.5250 C   0  0  0  0  0  0  0  0  0  0  0  0
   28.5740   29.4410   17.5520 O   0  0  0  0  0  0  0  0  0  0  0  0
   28.9060   28.2080   18.1640 C   0  0  0  0  0  0  0  0  0  0  0  0
   29.5100   27.2450   17.1510 C   0  0  0  0  0  0  0  0  0  0  0  0
   27.6100   25.9730   15.9430 C   0  0  0  0  0  0  0  0  0  0  0  0
   27.8460   24.9360   16.9670 N   0  0  0  0  0  4  0  0  0  0  0  0
   29.7390   26.5810   14.7470 C   0  0  0  0  0  0  0  0  0  0  0  0
   29.1850   25.7360   13.6220 C   0  0  0  0  0  0  0  0  0  0  0  0
   28.5130   26.3370   12.5470 C   0  0  0  0  0  0  0  0  0  0  0  0
   28.0170   25.5660   11.4880 C   0  0  0  0  0  0  0  0  0  0  0  0
   28.1810   24.1830   11.4930 C   0  0  0  0  0  0  0  0  0  0  0  0
   28.8350   23.5790   12.5680 C   0  0  0  0  0  0  0  0  0  0  0  0
   29.3230   24.3450   13.6290 C   0  0  0  0  0  0  0  0  0  0  0  0
   27.7590   23.3190   10.5240 O   0  0  0  0  0  0  0  0  0  0  0  0
   26.7410   22.3910   10.8810 C   0  0  0  0  0  0  0  0  0  0  0  0
   28.9041   28.9956   14.8625 H   0  0  0  0  0  0  0  0  0  0  0  0
   27.2396   28.2122   14.7716 H   0  0  0  0  0  0  0  0  0  0  0  0
   27.3812   30.3257   16.1273 H   0  0  0  0  0  0  0  0  0  0  0  0
   26.6994   28.8665   16.9468 H   0  0  0  0  0  0  0  0  0  0  0  0
   29.6348   28.3894   18.9677 H   0  0  0  0  0  0  0  0  0  0  0  0
   27.9883   27.7594   18.5722 H   0  0  0  0  0  0  0  0  0  0  0  0
   29.5938   26.2578   17.6290 H   0  0  0  0  0  0  0  0  0  0  0  0
   30.4783   27.6783   16.8601 H   0  0  0  0  0  0  0  0  0  0  0  0
   26.6556   26.4675   16.1767 H   0  0  0  0  0  0  0  0  0  0  0  0
   27.6155   25.4468   14.9770 H   0  0  0  0  0  0  0  0  0  0  0  0
   27.7514   25.3516   17.9047 H   0  0  0  0  0  0  0  0  0  0  0  0
   27.1556   24.1798   16.8554 H   0  0  0  0  0  0  0  0  0  0  0  0
   28.7956   24.5531   16.8554 H   0  0  0  0  0  0  0  0  0  0  0  0
   30.2028   27.4721   14.2989 H   0  0  0  0  0  0  0  0  0  0  0  0
   30.4384   25.9259   15.2871 H   0  0  0  0  0  0  0  0  0  0  0  0
   28.3738   27.4281   12.5357 H   0  0  0  0  0  0  0  0  0  0  0  0
   27.4968   26.0539   10.6505 H   0  0  0  0  0  0  0  0  0  0  0  0
   28.9676   22.4871   12.5797 H   0  0  0  0  0  0  0  0  0  0  0  0
   29.8197   23.8500   14.4765 H   0  0  0  0  0  0  0  0  0  0  0  0
   26.6710   22.3272   11.9769 H   0  0  0  0  0  0  0  0  0  0  0  0
   25.7775   22.7280   10.4710 H   0  0  0  0  0  0  0  0  0  0  0  0
   26.9876   21.4005   10.4710 H   0  0  0  0  0  0  0  0  0  0  0  0
  2  1  1  0
  3  2  1  0
  4  3  1  0
  5  4  1  0
  6  1  1  0
  6  5  1  0
  7  1  1  0
  8  7  1  0
  9  1  1  0
 10  9  1  0
 11 10  2  0
 12 11  1  0
 13 12  2  0
 14 13  1  0
 15 14  2  0
 15 10  1  0
 16 13  1  0
 17 16  1  0
  2 18  1  0
  2 19  1  0
  3 20  1  0
  3 21  1  0
  5 22  1  0
  5 23  1  0
  6 24  1  0
  6 25  1  0
  7 26  1  0
  7 27  1  0
  8 28  1  0
  8 29  1  0
  8 30  1  0
  9 31  1  0
  9 32  1  0
 11 33  1  0
 12 34  1  0
 14 35  1  0
 15 36  1  0
 17 37  1  0
 17 38  1  0
 17 39  1  0
M  CHG  1   8   1
M  END
$$$$
=
     RDKit          3D

 45 48  0  0  0  0  0  0  0  0999 V2000
   26.1220   26.8700   13.9210 N   0  0  0  0  0  0  0  0  0  0  0  0
   26.8770   26.5380   15.0570 C   0  0  0  0  0  0  0  0  0  0  0  0
   26.7990   25.3030   15.5620 N   0  0  0  0  0  0  0  0  0  0  0  0
   27.5210   25.0200   16.6500 C   0  0  0  0  0  0  0  0  0  0  0  0
   28.3290   25.8730   17.2840 N   0  0  0  0  0  0  0  0  0  0  0  0
   28.3750   27.1240   16.7980 C   0  0  0  0  0  0  0  0  0  0  0  0
   27.6640   27.5200   15.6660 C   0  0  0  0  0  0  0  0  0  0  0  0
   27.7480   28.9340   15.1560 C   0  0  0  0  0  0  0  0  0  0  0  0
   29.1470   29.2800   14.6460 C   0  0  0  0  0  0  0  0  0  0  0  0
   30.0820   29.6220   15.7680 N   0  0  0  0  0  4  0  0  0  0  0  0
   30.4580   28.5070   16.7040 C   0  0  0  0  0  0  0  0  0  0  0  0
   29.2730   28.0660   17.5510 C   0  0  0  0  0  0  0  0  0  0  0  0
   25.3010   25.8150   13.2720 C   0  0  2  0  0  0  0  0  0  0  0  0
   27.5250   23.0450   10.7400 C   0  0  0  0  0  0  0  0  0  0  0  0
   26.2890   22.6660   11.2540 C   0  0  0  0  0  0  0  0  0  0  0  0
   25.5690   23.5420   12.0740 C   0  0  0  0  0  0  0  0  0  0  0  0
   26.0790   24.8060   12.4150 C   0  0  0  0  0  0  0  0  0  0  0  0
   27.3190   25.1770   11.8560 C   0  0  0  0  0  0  0  0  0  0  0  0
   28.0380   24.3030   11.0350 C   0  0  0  0  0  0  0  0  0  0  0  0
   24.0050   26.3260   12.6880 C   0  0  0  0  0  0  0  0  0  0  0  0
   23.4090   26.2690   11.4420 C   0  0  0  0  0  0  0  0  0  0  0  0
   22.1820   26.9630   11.5470 C   0  0  0  0  0  0  0  0  0  0  0  0
   22.1070   27.4160   12.8430 C   0  0  0  0  0  0  0  0  0  0  0  0
   23.2120   27.0490   13.5410 O   0  0  0  0  0  0  0  0  0  0  0  0
   26.1369   27.8283   13.5438 H   0  0  0  0  0  0  0  0  0  0  0  0
   27.4433   24.0009   17.0566 H   0  0  0  0  0  0  0  0  0  0  0  0
   27.0298   29.0570   14.3320 H   0  0  0  0  0  0  0  0  0  0  0  0
   27.5160   29.6098   15.9924 H   0  0  0  0  0  0  0  0  0  0  0  0
   29.5499   28.4153   14.0982 H   0  0  0  0  0  0  0  0  0  0  0  0
   29.0635   30.1600   13.9913 H   0  0  0  0  0  0  0  0  0  0  0  0
   30.9510   29.9834   15.3496 H   0  0  0  0  0  0  0  0  0  0  0  0
   29.5674   30.2987   16.3495 H   0  0  0  0  0  0  0  0  0  0  0  0
   30.8142   27.6498   16.1138 H   0  0  0  0  0  0  0  0  0  0  0  0
   31.2465   28.8733   17.3779 H   0  0  0  0  0  0  0  0  0  0  0  0
   28.6936   28.9539   17.8442 H   0  0  0  0  0  0  0  0  0  0  0  0
   29.6595   27.5395   18.4361 H   0  0  0  0  0  0  0  0  0  0  0  0
   24.9716   25.1747   14.1036 H   0  0  0  0  0  0  0  0  0  0  0  0
   28.0941   22.3521   10.1028 H   0  0  0  0  0  0  0  0  0  0  0  0
   25.8764   21.6747   11.0151 H   0  0  0  0  0  0  0  0  0  0  0  0
   24.5852   23.2352   12.4589 H   0  0  0  0  0  0  0  0  0  0  0  0
   27.7293   26.1749   12.0702 H   0  0  0  0  0  0  0  0  0  0  0  0
   29.0100   24.6109   10.6223 H   0  0  0  0  0  0  0  0  0  0  0  0
   23.8114   25.7788   10.5433 H   0  0  0  0  0  0  0  0  0  0  0  0
   21.4368   27.1109   10.7515 H   0  0  0  0  0  0  0  0  0  0  0  0
   21.2683   27.9952   13.2567 H   0  0  0  0  0  0  0  0  0  0  0  0
  2  1  1  0
  3  2  2  0
  4  3  1  0
  5  4  2  0
  6  5  1  0
  7  2  1  0
  7  6  2  0
  8  7  1  0
  9  8  1  0
 10  9  1  0
 11 10  1  0
 12  6  1  0
 12 11  1  0
 13  1  1  0
 15 14  2  0
 16 15  1  0
 17 16  2  0
 17 13  1  0
 18 17  1  0
 19 14  1  0
 19 18  2  0
 20 13  1  0
 21 20  2  0
 22 21  1  0
 23 22  2  0
 24 20  1  0
 24 23  1  0
  1 25  1  0
  4 26  1  0
  8 27  1  0
  8 28  1  0
  9 29  1  0
  9 30  1  0
 10 31  1  0
 10 32  1  0
 11 33  1  0
 11 34  1  0
 12 35  1  0
 12 36  1  0
 13 37  1  1
 14 38  1  0
 15 39  1  0
 16 40  1  0
 18 41  1  0
 19 42  1  0
 21 43  1  0
 22 44  1  0
 23 45  1  0
M  CHG  1  10   1
M  END
$$$$
=
     RDKit          3D

 32 33  0  0  0  0  0  0  0  0999 V2000
   28.2120   25.2760   16.0840 C   0  0  0  0  0  0  0  0  0  0  0  0
   27.5660   24.8080   17.0270 O   0  0  0  0  0  0  0  0  0  0  0  0
   28.4090   26.6400   15.9110 N   0  0  0  0  0  0  0  0  0  0  0  0
   27.8840   27.5430   16.9190 C   0  0  0  0  0  0  0  0  0  0  0  0
   28.4290   28.9420   17.0640 C   0  0  0  0  0  0  0  0  0  0  0  0
   28.6670   27.9370   18.1470 C   0  0  0  0  0  0  0  0  0  0  0  0
   28.6560   24.3010   14.9940 C   0  0  0  0  0  0  0  0  0  0  0  0
   27.4980   23.4540   14.5830 N   0  0  0  0  0  4  0  0  0  0  0  0
   29.1920   27.2660   14.8290 C   0  0  0  0  0  0  0  0  0  0  0  0
   28.2550   27.8580   13.7660 C   0  0  0  0  0  0  0  0  0  0  0  0
   28.1930   29.0880   13.6190 O   0  0  0  0  0  0  0  0  0  0  0  0
   27.4170   26.9530   13.0070 C   0  0  0  0  0  0  0  0  0  0  0  0
   27.7170   26.0900   11.9640 C   0  0  0  0  0  0  0  0  0  0  0  0
   26.5250   25.4280   11.5840 C   0  0  0  0  0  0  0  0  0  0  0  0
   25.5220   25.8960   12.3980 C   0  0  0  0  0  0  0  0  0  0  0  0
   26.0660   26.8140   13.2530 N   0  0  0  0  0  0  0  0  0  0  0  0
   26.8955   27.0921   16.7474 H   0  0  0  0  0  0  0  0  0  0  0  0
   29.2642   29.2745   16.4301 H   0  0  0  0  0  0  0  0  0  0  0  0
   27.9951   29.9520   17.0241 H   0  0  0  0  0  0  0  0  0  0  0  0
   29.6769   27.5317   18.3080 H   0  0  0  0  0  0  0  0  0  0  0  0
   28.4801   27.9043   19.2305 H   0  0  0  0  0  0  0  0  0  0  0  0
   29.0242   24.8656   14.1247 H   0  0  0  0  0  0  0  0  0  0  0  0
   29.4607   23.6590   15.3817 H   0  0  0  0  0  0  0  0  0  0  0  0
   27.0157   23.1013   15.4220 H   0  0  0  0  0  0  0  0  0  0  0  0
   26.8430   24.0169   14.0217 H   0  0  0  0  0  0  0  0  0  0  0  0
   27.8360   22.6593   14.0217 H   0  0  0  0  0  0  0  0  0  0  0  0
   29.8158   28.0683   15.2500 H   0  0  0  0  0  0  0  0  0  0  0  0
   29.8278   26.5011   14.3592 H   0  0  0  0  0  0  0  0  0  0  0  0
   28.7087   25.9451   11.5108 H   0  0  0  0  0  0  0  0  0  0  0  0
   26.4211   24.6784   10.7857 H   0  0  0  0  0  0  0  0  0  0  0  0
   24.4669   25.5866   12.3673 H   0  0  0  0  0  0  0  0  0  0  0  0
   25.5429   27.3278   13.9764 H   0  0  0  0  0  0  0  0  0  0  0  0
  2  1  2  0
  3  1  1  0
  4  3  1  0
  5  4  1  0
  6  5  1  0
  6  4  1  0
  7  1  1  0
  8  7  1  0
  9  3  1  0
 10  9  1  0
 11 10  2  0
 12 10  1  0
 13 12  2  0
 14 13  1  0
 15 14  2  0
 16 15  1  0
 16 12  1  0
  4 17  1  0
  5 18  1  0
  5 19  1  0
  6 20  1  0
  6 21  1  0
  7 22  1  0
  7 23  1  0
  8 24  1  0
  8 25  1  0
  8 26  1  0
  9 27  1  0
  9 28  1  0
 13 29  1  0
 14 30  1  0
 15 31  1  0
 16 32  1  0
M  CHG  1   8   1
M  END
$$$$
=
     RDKit          3D

 27 27  0  0  0  0  0  0  0  0999 V2000
   18.8480   16.0230    4.2710 C   0  0  1  0  0  0  0  0  0  0  0  0
   17.4210   15.5210    4.3950 C   0  0  0  0  0  0  0  0  0  0  0  0
   16.5350   15.9130    5.4120 C   0  0  0  0  0  0  0  0  0  0  0  0
   15.2210   15.4300    5.4520 C   0  0  0  0  0  0  0  0  0  0  0  0
   14.7660   14.5440    4.4800 C   0  0  0  0  0  0  0  0  0  0  0  0
   15.6320   14.1420    3.4770 C   0  0  0  0  0  0  0  0  0  0  0  0
   16.9420   14.6150    3.4260 C   0  0  0  0  0  0  0  0  0  0  0  0
   15.2120   13.2900    2.5350 F   0  0  0  0  0  0  0  0  0  0  0  0
   19.6720   15.0180    3.5390 N   0  0  0  0  0  4  0  0  0  0  0  0
   19.5840   17.4390    2.2130 C   0  0  0  0  0  0  0  0  0  0  0  0
   19.0690   17.4360    3.6590 C   0  0  0  0  0  0  0  0  0  0  0  0
   20.0400   18.2550    4.5240 C   0  0  0  0  0  0  0  0  0  0  0  0
   19.1679   16.1483    5.3160 H   0  0  0  0  0  0  0  0  0  0  0  0
   16.8788   16.6108    6.1898 H   0  0  0  0  0  0  0  0  0  0  0  0
   14.5443   15.7530    6.2568 H   0  0  0  0  0  0  0  0  0  0  0  0
   13.7326   14.1682    4.5081 H   0  0  0  0  0  0  0  0  0  0  0  0
   17.6105   14.2776    2.6202 H   0  0  0  0  0  0  0  0  0  0  0  0
   20.1638   14.4181    4.2166 H   0  0  0  0  0  0  0  0  0  0  0  0
   19.0602   14.4377    2.9475 H   0  0  0  0  0  0  0  0  0  0  0  0
   20.3609   15.5041    2.9475 H   0  0  0  0  0  0  0  0  0  0  0  0
   20.6840   17.4454    2.2156 H   0  0  0  0  0  0  0  0  0  0  0  0
   19.2238   16.5387    1.6936 H   0  0  0  0  0  0  0  0  0  0  0  0
   19.2133   18.3350    1.6936 H   0  0  0  0  0  0  0  0  0  0  0  0
   18.0670   17.8894    3.6417 H   0  0  0  0  0  0  0  0  0  0  0  0
   19.8255   18.0740    5.5876 H   0  0  0  0  0  0  0  0  0  0  0  0
   21.0738   17.9520    4.3018 H   0  0  0  0  0  0  0  0  0  0  0  0
   19.9157   19.3251    4.3018 H   0  0  0  0  0  0  0  0  0  0  0  0
  2  1  1  0
  3  2  2  0
  4  3  1  0
  5  4  2  0
  6  5  1  0
  7  6  2  0
  7  2  1  0
  8  6  1  0
  9  1  1  0
 11  1  1  0
 11 10  1  0
 12 11  1  0
  1 13  1  1
  3 14  1  0
  4 15  1  0
  5 16  1  0
  7 17  1  0
  9 18  1  0
  9 19  1  0
  9 20  1  0
 10 21  1  0
 10 22  1  0
 10 23  1  0
 11 24  1  0
 12 25  1  0
 12 26  1  0
 12 27  1  0
M  CHG  1   9   1
M  END
$$$$
=
     RDKit          3D

 27 28  0  0  0  0  0  0  0  0999 V2000
   18.2620   13.8600    3.5910 C   0  0  0  0  0  0  0  0  0  0  0  0
   19.2380   14.8100    3.9160 C   0  0  0  0  0  0  0  0  0  0  0  0
   18.8920   16.0240    4.5320 C   0  0  0  0  0  0  0  0  0  0  0  0
   17.5380   16.2960    4.7790 C   0  0  0  0  0  0  0  0  0  0  0  0
   16.5420   15.3840    4.3930 C   0  0  0  0  0  0  0  0  0  0  0  0
   16.9180   14.1760    3.7890 C   0  0  0  0  0  0  0  0  0  0  0  0
   19.8990   16.9680    4.8920 N   0  0  0  0  0  0  0  0  0  0  0  0
   19.7170   18.2200    5.4410 C   0  0  0  0  0  0  0  0  0  0  0  0
   20.8500   18.8550    5.6540 N   0  0  0  0  0  0  0  0  0  0  0  0
   21.8270   17.9950    5.2360 C   0  0  0  0  0  0  0  0  0  0  0  0
   21.2660   16.8280    4.7630 C   0  0  0  0  0  0  0  0  0  0  0  0
   23.2530   18.3750    5.3290 C   0  0  0  0  0  0  0  0  0  0  0  0
   15.0850   15.6840    4.6490 C   0  0  0  0  0  0  0  0  0  0  0  0
   14.8240   17.0190    4.7330 F   0  0  0  0  0  0  0  0  0  0  0  0
   14.2590   15.2040    3.6800 F   0  0  0  0  0  0  0  0  0  0  0  0
   14.6470   15.1430    5.8180 F   0  0  0  0  0  0  0  0  0  0  0  0
   18.6120   12.7100    2.8740 N   0  0  0  0  0  0  0  0  0  0  0  0
   20.2932   14.6021    3.6851 H   0  0  0  0  0  0  0  0  0  0  0  0
   17.2535   17.2330    5.2801 H   0  0  0  0  0  0  0  0  0  0  0  0
   16.1415   13.4668    3.4664 H   0  0  0  0  0  0  0  0  0  0  0  0
   18.7292   18.6432    5.6760 H   0  0  0  0  0  0  0  0  0  0  0  0
   21.8028   15.9559    4.3614 H   0  0  0  0  0  0  0  0  0  0  0  0
   23.5436   18.4524    6.3871 H   0  0  0  0  0  0  0  0  0  0  0  0
   23.8694   17.6098    4.8345 H   0  0  0  0  0  0  0  0  0  0  0  0
   23.4068   19.3455    4.8345 H   0  0  0  0  0  0  0  0  0  0  0  0
   17.8924   12.0125    2.6360 H   0  0  0  0  0  0  0  0  0  0  0  0
   19.5892   12.5612    2.5843 H   0  0  0  0  0  0  0  0  0  0  0  0
  2  1  2  0
  3  2  1  0
  4  3  2  0
  5  4  1  0
  6  5  2  0
  6  1  1  0
  7  3  1  0
  8  7  1  0
  9  8  2  0
 10  9  1  0
 11  7  1  0
 11 10  2  0
 12 10  1  0
 13  5  1  0
 14 13  1  0
 15 13  1  0
 16 13  1  0
 17  1  1  0
  2 18  1  0
  4 19  1  0
  6 20  1  0
  8 21  1  0
 11 22  1  0
 12 23  1  0
 12 24  1  0
 12 25  1  0
 17 26  1  0
 17 27  1  0
M  END
$$$$
=
     RDKit          3D

 33 35  0  0  0  0  0  0  0  0999 V2000
   13.6660   11.1310    4.2080 O   0  0  0  0  0  0  0  0  0  0  0  0
   13.4240   11.9960    3.3680 C   0  0  0  0  0  0  0  0  0  0  0  0
   14.3720   12.4830    2.4600 N   0  0  0  0  0  0  0  0  0  0  0  0
   15.7000   12.2010    2.6530 N   0  0  0  0  0  0  0  0  0  0  0  0
   16.4730   13.0900    3.1960 C   0  0  0  0  0  0  0  0  0  0  0  0
   17.9980   12.8700    3.2530 C   0  0  0  0  0  0  0  0  0  0  0  0
   18.6020   11.8930    2.8660 O   0  0  0  0  0  0  0  0  0  0  0  0
   18.5140   13.9990    3.8470 N   0  0  0  0  0  0  0  0  0  0  0  0
   17.4980   14.8760    4.2090 C   0  0  0  0  0  0  0  0  0  0  0  0
   16.2380   14.3820    3.8590 C   0  0  0  0  0  0  0  0  0  0  0  0
   15.0890   15.0700    4.2030 C   0  0  0  0  0  0  0  0  0  0  0  0
   15.2320   16.2940    4.8660 C   0  0  0  0  0  0  0  0  0  0  0  0
   16.5050   16.7960    5.1900 C   0  0  0  0  0  0  0  0  0  0  0  0
   17.6590   16.0800    4.8650 C   0  0  0  0  0  0  0  0  0  0  0  0
   12.0620   12.6300    3.2880 C   0  0  0  0  0  0  0  0  0  0  0  0
   11.8120   13.8560    3.9350 C   0  0  0  0  0  0  0  0  0  0  0  0
   10.5410   14.4300    3.9080 C   0  0  0  0  0  0  0  0  0  0  0  0
    9.5100   13.7990    3.2210 C   0  0  0  0  0  0  0  0  0  0  0  0
    9.7530   12.5990    2.5530 C   0  0  0  0  0  0  0  0  0  0  0  0
   11.0150   11.9880    2.5880 C   0  0  0  0  0  0  0  0  0  0  0  0
   11.2200   10.8670    1.7670 N   0  0  0  0  0  0  0  0  0  0  0  0
   14.0740   13.0491    1.6528 H   0  0  0  0  0  0  0  0  0  0  0  0
   19.5176   14.1710    4.0024 H   0  0  0  0  0  0  0  0  0  0  0  0
   14.0937   14.6678    3.9630 H   0  0  0  0  0  0  0  0  0  0  0  0
   14.3361   16.8716    5.1375 H   0  0  0  0  0  0  0  0  0  0  0  0
   16.5927   17.7638    5.7054 H   0  0  0  0  0  0  0  0  0  0  0  0
   18.6584   16.4609    5.1219 H   0  0  0  0  0  0  0  0  0  0  0  0
   12.6281   14.3664    4.4674 H   0  0  0  0  0  0  0  0  0  0  0  0
   10.3547   15.3805    4.4295 H   0  0  0  0  0  0  0  0  0  0  0  0
    8.5047   14.2453    3.2043 H   0  0  0  0  0  0  0  0  0  0  0  0
    8.9388   12.1223    1.9875 H   0  0  0  0  0  0  0  0  0  0  0  0
   12.1332   10.3905    1.7645 H   0  0  0  0  0  0  0  0  0  0  0  0
   10.4572   10.5214    1.1674 H   0  0  0  0  0  0  0  0  0  0  0  0
  2  1  2  0
  3  2  1  0
  4  3  1  0
  5  4  2  0
  6  5  1  0
  7  6  2  0
  8  6  1  0
  9  8  1  0
 10  9  2  0
 10  5  1  0
 11 10  1  0
 12 11  2  0
 13 12  1  0
 14  9  1  0
 14 13  2  0
 15  2  1  0
 16 15  2  0
 17 16  1  0
 18 17  2  0
 19 18  1  0
 20 19  2  0
 20 15  1  0
 21 20  1  0
  3 22  1  0
  8 23  1  0
 11 24  1  0
 12 25  1  0
 13 26  1  0
 14 27  1  0
 16 28  1  0
 17 29  1  0
 18 30  1  0
 19 31  1  0
 21 32  1  0
 21 33  1  0
M  END
$$$$
=
     RDKit          3D

 24 25  0  0  0  0  0  0  0  0999 V2000
   22.7990   17.6250    6.0460 C   0  0  0  0  0  0  0  0  0  0  0  0
   23.2190   18.7960    5.2140 N   0  0  0  0  0  4  0  0  0  0  0  0
   22.2140   18.9930    4.1090 C   0  0  0  0  0  0  0  0  0  0  0  0
   21.0560   18.0730    4.4860 C   0  0  2  0  0  0  0  0  0  0  0  0
   21.7640   16.9210    5.1930 C   0  0  0  0  0  0  0  0  0  0  0  0
   20.2170   17.6050    3.2930 C   0  0  0  0  0  0  0  0  0  0  0  0
   19.2720   16.5070    3.6760 C   0  0  0  0  0  0  0  0  0  0  0  0
   19.3520   15.2800    3.2020 N   0  0  0  0  0  0  0  0  0  0  0  0
   18.3550   14.5050    3.7680 C   0  0  0  0  0  0  0  0  0  0  0  0
   17.5270   15.1540    4.6570 C   0  0  0  0  0  0  0  0  0  0  0  0
   18.0080   16.7920    4.8010 S   0  0  0  0  0  0  0  0  0  0  0  0
   23.6538   16.9632    6.2492 H   0  0  0  0  0  0  0  0  0  0  0  0
   22.4052   17.9237    7.0287 H   0  0  0  0  0  0  0  0  0  0  0  0
   23.2579   19.6414    5.8011 H   0  0  0  0  0  0  0  0  0  0  0  0
   24.1513   18.6227    4.8119 H   0  0  0  0  0  0  0  0  0  0  0  0
   21.8817   20.0407    4.0664 H   0  0  0  0  0  0  0  0  0  0  0  0
   22.6289   18.7623    3.1167 H   0  0  0  0  0  0  0  0  0  0  0  0
   20.3066   18.5812    5.1106 H   0  0  0  0  0  0  0  0  0  0  0  0
   21.0613   16.3490    5.8167 H   0  0  0  0  0  0  0  0  0  0  0  0
   22.2020   16.1905    4.4969 H   0  0  0  0  0  0  0  0  0  0  0  0
   19.6366   18.4570    2.9094 H   0  0  0  0  0  0  0  0  0  0  0  0
   20.9012   17.2158    2.5246 H   0  0  0  0  0  0  0  0  0  0  0  0
   18.2317   13.4396    3.5237 H   0  0  0  0  0  0  0  0  0  0  0  0
   16.6852   14.6912    5.1929 H   0  0  0  0  0  0  0  0  0  0  0  0
  2  1  1  0
  3  2  1  0
  4  3  1  0
  5  4  1  0
  5  1  1  0
  6  4  1  0
  7  6  1  0
  8  7  2  0
  9  8  1  0
 10  9  2  0
 11 10  1  0
 11  7  1  0
  1 12  1  0
  1 13  1  0
  2 14  1  0
  2 15  1  0
  3 16  1  0
  3 17  1  0
  4 18  1  1
  5 19  1  0
  5 20  1  0
  6 21  1  0
  6 22  1  0
  9 23  1  0
 10 24  1  0
M  CHG  1   2   1
M  END
$$$$
=
     RDKit          3D

 22 22  0  0  0  0  0  0  0  0999 V2000
   13.6010   14.2210    3.8930 C   0  0  0  0  0  0  0  0  0  0  0  0
   14.2030   15.2890    4.5630 C   0  0  0  0  0  0  0  0  0  0  0  0
   15.6000   15.4360    4.5400 C   0  0  0  0  0  0  0  0  0  0  0  0
   16.2160   16.5780    5.3070 C   0  0  0  0  0  0  0  0  0  0  0  0
   16.3940   14.5320    3.7980 C   0  0  0  0  0  0  0  0  0  0  0  0
   15.7790   13.4200    3.1780 C   0  0  0  0  0  0  0  0  0  0  0  0
   14.3790   13.2840    3.2090 C   0  0  0  0  0  0  0  0  0  0  0  0
   16.5880   12.3680    2.4650 C   0  0  0  0  0  0  0  0  0  0  0  0
   11.4820   14.9390    4.5170 O   0  0  0  0  0  1  0  0  0  0  0  0
   12.1400   14.0710    3.9220 N   0  0  0  0  0  4  0  0  0  0  0  0
   11.6470   13.0900    3.3480 O   0  0  0  0  0  0  0  0  0  0  0  0
   17.7960   14.6140    3.8580 N   0  0  0  0  0  0  0  0  0  0  0  0
   13.5828   16.0152    5.1089 H   0  0  0  0  0  0  0  0  0  0  0  0
   16.1153   16.3913    6.3864 H   0  0  0  0  0  0  0  0  0  0  0  0
   17.2816   16.6617    5.0472 H   0  0  0  0  0  0  0  0  0  0  0  0
   15.7006   17.5144    5.0472 H   0  0  0  0  0  0  0  0  0  0  0  0
   13.8970   12.4396    2.6945 H   0  0  0  0  0  0  0  0  0  0  0  0
   17.0841   11.7229    3.2051 H   0  0  0  0  0  0  0  0  0  0  0  0
   15.9233   11.7590    1.8347 H   0  0  0  0  0  0  0  0  0  0  0  0
   17.3473   12.8540    1.8347 H   0  0  0  0  0  0  0  0  0  0  0  0
   18.3740   13.9550    3.3171 H   0  0  0  0  0  0  0  0  0  0  0  0
   18.2453   15.3330    4.4428 H   0  0  0  0  0  0  0  0  0  0  0  0
  2  1  2  0
  3  2  1  0
  4  3  1  0
  5  3  2  0
  6  5  1  0
  7  6  2  0
  7  1  1  0
  8  6  1  0
 10  9  1  0
 10  1  1  0
 11 10  2  0
 12  5  1  0
  2 13  1  0
  4 14  1  0
  4 15  1  0
  4 16  1  0
  7 17  1  0
  8 18  1  0
  8 19  1  0
  8 20  1  0
 12 21  1  0
 12 22  1  0
M  CHG  2   9  -1  10   1
M  END
$$$$
=
     RDKit          3D

 25 26  0  0  0  0  0  0  0  0999 V2000
   13.6840   13.9400    3.9690 C   0  0  0  0  0  0  0  0  0  0  0  0
   14.0850   15.1150    4.6080 C   0  0  0  0  0  0  0  0  0  0  0  0
   15.4260   15.5190    4.5680 C   0  0  0  0  0  0  0  0  0  0  0  0
   16.3880   14.7520    3.9000 C   0  0  0  0  0  0  0  0  0  0  0  0
   15.9740   13.5760    3.2560 C   0  0  0  0  0  0  0  0  0  0  0  0
   14.6290   13.1860    3.2460 C   0  0  0  0  0  0  0  0  0  0  0  0
   17.7910   15.1330    3.8580 C   0  0  0  0  0  0  0  0  0  0  0  0
   18.8820   14.2880    3.8960 C   0  0  0  0  0  0  0  0  0  0  0  0
   19.9770   15.1070    3.8270 N   0  0  0  0  0  0  0  0  0  0  0  0
   19.5270   16.3920    3.7500 C   0  0  0  0  0  0  0  0  0  0  0  0
   18.2160   16.4420    3.7680 N   0  0  0  0  0  0  0  0  0  0  0  0
   14.2740   11.9370    2.6920 N   0  0  0  0  0  0  0  0  0  0  0  0
   11.3670   14.3530    4.3300 C   0  0  0  0  0  0  0  0  0  0  0  0
   12.3990   13.4550    3.9430 O   0  0  0  0  0  0  0  0  0  0  0  0
   13.3448   15.7262    5.1452 H   0  0  0  0  0  0  0  0  0  0  0  0
   15.7270   16.4513    5.0682 H   0  0  0  0  0  0  0  0  0  0  0  0
   16.7210   12.9478    2.7488 H   0  0  0  0  0  0  0  0  0  0  0  0
   18.8734   13.1903    3.9667 H   0  0  0  0  0  0  0  0  0  0  0  0
   20.9623   14.8069    3.8323 H   0  0  0  0  0  0  0  0  0  0  0  0
   20.1801   17.2745    3.6815 H   0  0  0  0  0  0  0  0  0  0  0  0
   13.2876   11.6407    2.6797 H   0  0  0  0  0  0  0  0  0  0  0  0
   15.0014   11.3220    2.3001 H   0  0  0  0  0  0  0  0  0  0  0  0
   11.3138   14.3993    5.4277 H   0  0  0  0  0  0  0  0  0  0  0  0
   11.5839   15.3548    3.9308 H   0  0  0  0  0  0  0  0  0  0  0  0
   10.4048   13.9997    3.9308 H   0  0  0  0  0  0  0  0  0  0  0  0
  2  1  2  0
  3  2  1  0
  4  3  2  0
  5  4  1  0
  6  5  2  0
  6  1  1  0
  7  4  1  0
  8  7  2  0
  9  8  1  0
 10  9  1  0
 11  7  1  0
 11 10  2  0
 12  6  1  0
 14 13  1  0
 14  1  1  0
  2 15  1  0
  3 16  1  0
  5 17  1  0
  8 18  1  0
  9 19  1  0
 10 20  1  0
 12 21  1  0
 12 22  1  0
 13 23  1  0
 13 24  1  0
 13 25  1  0
M  END
$$$$
=
     RDKit          3D

 23 23  0  0  0  0  0  0  0  0999 V2000
   20.3670   14.9490    6.6650 C   0  0  0  0  0  0  0  0  0  0  0  0
   21.1410   15.5280    5.4810 C   0  0  2  0  0  0  0  0  0  0  0  0
   21.8110   16.7960    5.9730 N   0  0  0  0  0  4  0  0  0  0  0  0
   22.4500   17.6320    4.9120 C   0  0  0  0  0  0  0  0  0  0  0  0
   21.4360   18.2210    3.9290 C   0  0  0  0  0  0  0  0  0  0  0  0
   19.7510   17.5510    4.1540 S   0  0  0  0  0  4  0  0  0  0  0  0
   19.3630   17.9020    5.5640 O   0  0  0  0  0  0  0  0  0  0  0  0
   20.3130   15.7960    4.1970 C   0  0  2  0  0  0  0  0  0  0  0  0
   19.1180   14.8730    3.9930 C   0  0  0  0  0  0  0  0  0  0  0  0
   20.8246   15.2913    7.6049 H   0  0  0  0  0  0  0  0  0  0  0  0
   19.3217   15.2887    6.6211 H   0  0  0  0  0  0  0  0  0  0  0  0
   20.3977   13.8503    6.6211 H   0  0  0  0  0  0  0  0  0  0  0  0
   21.8639   14.7665    5.1531 H   0  0  0  0  0  0  0  0  0  0  0  0
   21.0980   17.3705    6.4448 H   0  0  0  0  0  0  0  0  0  0  0  0
   22.5737   16.4928    6.5954 H   0  0  0  0  0  0  0  0  0  0  0  0
   22.9920   18.4585    5.3949 H   0  0  0  0  0  0  0  0  0  0  0  0
   23.1257   16.9798    4.3392 H   0  0  0  0  0  0  0  0  0  0  0  0
   21.4017   19.3111    4.0720 H   0  0  0  0  0  0  0  0  0  0  0  0
   21.7651   17.9499    2.9150 H   0  0  0  0  0  0  0  0  0  0  0  0
   21.0011   15.5810    3.3662 H   0  0  0  0  0  0  0  0  0  0  0  0
   18.7205   14.5660    4.9717 H   0  0  0  0  0  0  0  0  0  0  0  0
   18.3364   15.4041    3.4300 H   0  0  0  0  0  0  0  0  0  0  0  0
   19.4344   13.9825    3.4300 H   0  0  0  0  0  0  0  0  0  0  0  0
  2  1  1  0
  3  2  1  0
  4  3  1  0
  5  4  1  0
  6  5  1  1
  7  6  2  0
  8  2  1  0
  8  6  1  0
  9  8  1  0
  1 10  1  0
  1 11  1  0
  1 12  1  0
  2 13  1  6
  3 14  1  0
  3 15  1  0
  4 16  1  0
  4 17  1  0
  5 18  1  0
  5 19  1  0
  8 20  1  6
  9 21  1  0
  9 22  1  0
  9 23  1  0
M  CHG  1   3   1
M  END
$$$$
=
     RDKit          3D

 28 28  0  0  0  0  0  0  0  0999 V2000
   18.3660   15.4900    5.1680 N   0  0  0  0  0  0  0  0  0  0  0  0
   17.5990   16.1900    6.0550 C   0  0  0  0  0  0  0  0  0  0  0  0
   16.3000   16.0800    5.6250 C   0  0  0  0  0  0  0  0  0  0  0  0
   16.3730   15.2820    4.4650 C   0  0  0  0  0  0  0  0  0  0  0  0
   17.6350   14.8990    4.1890 N   0  0  0  0  0  0  0  0  0  0  0  0
   15.2660   14.8190    3.5660 C   0  0  1  0  0  0  0  0  0  0  0  0
   15.4020   13.3510    3.1830 C   0  0  0  0  0  0  0  0  0  0  0  0
   13.9750   14.9900    4.2970 N   0  0  0  0  0  4  0  0  0  0  0  0
   19.8080   15.3070    5.2250 C   0  0  0  0  0  0  0  0  0  0  0  0
   20.2640   14.7770    6.5780 C   0  0  0  0  0  0  0  0  0  0  0  0
   21.7160   16.5890    6.1440 C   0  0  0  0  0  0  0  0  0  0  0  0
   21.2770   15.6360    7.1060 O   0  0  0  0  0  0  0  0  0  0  0  0
   17.9533   16.7359    6.9418 H   0  0  0  0  0  0  0  0  0  0  0  0
   15.4011   16.5176    6.0839 H   0  0  0  0  0  0  0  0  0  0  0  0
   15.3066   15.4150    2.6423 H   0  0  0  0  0  0  0  0  0  0  0  0
   15.4588   12.7380    4.0946 H   0  0  0  0  0  0  0  0  0  0  0  0
   14.5284   13.0446    2.5889 H   0  0  0  0  0  0  0  0  0  0  0  0
   16.3170   13.2103    2.5889 H   0  0  0  0  0  0  0  0  0  0  0  0
   14.1494   14.9669    5.3119 H   0  0  0  0  0  0  0  0  0  0  0  0
   13.5530   15.8942    4.0417 H   0  0  0  0  0  0  0  0  0  0  0  0
   13.3322   14.2268    4.0417 H   0  0  0  0  0  0  0  0  0  0  0  0
   20.1060   14.5913    4.4447 H   0  0  0  0  0  0  0  0  0  0  0  0
   20.2809   16.2877    5.0679 H   0  0  0  0  0  0  0  0  0  0  0  0
   19.4086   14.7499    7.2691 H   0  0  0  0  0  0  0  0  0  0  0  0
   20.6687   13.7612    6.4579 H   0  0  0  0  0  0  0  0  0  0  0  0
   22.1223   17.4710    6.6606 H   0  0  0  0  0  0  0  0  0  0  0  0
   22.4982   16.1404    5.5140 H   0  0  0  0  0  0  0  0  0  0  0  0
   20.8667   16.8920    5.5140 H   0  0  0  0  0  0  0  0  0  0  0  0
  2  1  1  0
  3  2  2  0
  4  3  1  0
  5  4  2  0
  5  1  1  0
  6  4  1  0
  7  6  1  0
  8  6  1  0
  9  1  1  0
 10  9  1  0
 12 10  1  0
 12 11  1  0
  2 13  1  0
  3 14  1  0
  6 15  1  6
  7 16  1  0
  7 17  1  0
  7 18  1  0
  8 19  1  0
  8 20  1  0
  8 21  1  0
  9 22  1  0
  9 23  1  0
 10 24  1  0
 10 25  1  0
 11 26  1  0
 11 27  1  0
 11 28  1  0
M  CHG  1   8   1
M  END
$$$$
=
     RDKit          3D

 28 29  0  0  0  0  0  0  0  0999 V2000
   17.7510   16.1220    4.6550 C   0  0  0  0  0  0  0  0  0  0  0  0
   16.6320   16.7040    5.1480 N   0  0  0  0  0  0  0  0  0  0  0  0
   15.4630   16.0650    4.9330 C   0  0  0  0  0  0  0  0  0  0  0  0
   15.3310   14.8620    4.2370 C   0  0  0  0  0  0  0  0  0  0  0  0
   16.4980   14.2700    3.7030 C   0  0  0  0  0  0  0  0  0  0  0  0
   17.7250   14.9250    3.9410 C   0  0  0  0  0  0  0  0  0  0  0  0
   16.3750   13.0610    2.9650 C   0  0  0  0  0  0  0  0  0  0  0  0
   15.1260   12.4290    2.8850 C   0  0  0  0  0  0  0  0  0  0  0  0
   13.9830   13.0220    3.4170 C   0  0  0  0  0  0  0  0  0  0  0  0
   14.0830   14.2420    4.0780 C   0  0  0  0  0  0  0  0  0  0  0  0
   17.5010   12.3650    2.4790 N   0  0  0  0  0  0  0  0  0  0  0  0
   19.0340   16.8550    4.9310 C   0  0  0  0  0  0  0  0  0  0  0  0
   19.1050   17.9660    5.4340 O   0  0  0  0  0  0  0  0  0  0  0  0
   20.1010   16.1050    4.5390 O   0  0  0  0  0  0  0  0  0  0  0  0
   20.6030   14.9320    6.5970 C   0  0  0  0  0  0  0  0  0  0  0  0
   21.1110   15.8910    5.5360 C   0  0  0  0  0  0  0  0  0  0  0  0
   14.5483   16.5251    5.3351 H   0  0  0  0  0  0  0  0  0  0  0  0
   18.6621   14.4905    3.5627 H   0  0  0  0  0  0  0  0  0  0  0  0
   15.0472   11.4480    2.3937 H   0  0  0  0  0  0  0  0  0  0  0  0
   13.0057   12.5276    3.3148 H   0  0  0  0  0  0  0  0  0  0  0  0
   13.1783   14.7231    4.4782 H   0  0  0  0  0  0  0  0  0  0  0  0
   17.3767   11.4915    1.9476 H   0  0  0  0  0  0  0  0  0  0  0  0
   18.4478   12.7301    2.6554 H   0  0  0  0  0  0  0  0  0  0  0  0
   20.8196   15.3410    7.5949 H   0  0  0  0  0  0  0  0  0  0  0  0
   19.5169   14.8004    6.4825 H   0  0  0  0  0  0  0  0  0  0  0  0
   21.1043   13.9596    6.4825 H   0  0  0  0  0  0  0  0  0  0  0  0
   22.0071   15.4657    5.0604 H   0  0  0  0  0  0  0  0  0  0  0  0
   21.3586   16.8526    6.0093 H   0  0  0  0  0  0  0  0  0  0  0  0
  2  1  2  0
  3  2  1  0
  4  3  2  0
  5  4  1  0
  6  5  2  0
  6  1  1  0
  7  5  1  0
  8  7  2  0
  9  8  1  0
 10  9  2  0
 10  4  1  0
 11  7  1  0
 12  1  1  0
 13 12  2  0
 14 12  1  0
 16 14  1  0
 16 15  1  0
  3 17  1  0
  6 18  1  0
  8 19  1  0
  9 20  1  0
 10 21  1  0
 11 22  1  0
 11 23  1  0
 15 24  1  0
 15 25  1  0
 15 26  1  0
 16 27  1  0
 16 28  1  0
M  END
$$$$
=
     RDKit          3D

 63 68  0  0  0  0  0  0  0  0999 V2000
   13.6250   13.1150    4.1840 N   0  0  0  0  0  4  0  0  0  0  0  0
   13.4860   14.6150    4.2440 C   0  0  0  0  0  0  0  0  0  0  0  0
   14.8640   15.2480    4.3870 C   0  0  0  0  0  0  0  0  0  0  0  0
   15.7910   14.8150    3.2500 C   0  0  0  0  0  0  0  0  0  0  0  0
   15.8890   13.2930    3.1820 C   0  0  0  0  0  0  0  0  0  0  0  0
   14.5070   12.6580    3.0490 C   0  0  0  0  0  0  0  0  0  0  0  0
   17.1520   15.4120    3.4830 N   0  0  0  0  0  4  0  0  0  0  0  0
   18.2650   14.4430    3.8410 C   0  0  0  0  0  0  0  0  0  0  0  0
   19.4060   15.1740    4.5070 C   0  0  0  0  0  0  0  0  0  0  0  0
   19.8480   14.6190    5.6730 N   0  0  0  0  0  0  0  0  0  0  0  0
   20.8990   15.2370    6.2740 C   0  0  0  0  0  0  0  0  0  0  0  0
   21.5160   16.3790    5.7830 C   0  0  0  0  0  0  0  0  0  0  0  0
   21.0600   16.9140    4.5780 C   0  0  0  0  0  0  0  0  0  0  0  0
   19.9760   16.3080    3.9340 C   0  0  0  0  0  0  0  0  0  0  0  0
   21.7160   18.1330    3.9910 C   0  0  0  0  0  0  0  0  0  0  0  0
   23.0940   18.3410    4.6040 C   0  0  0  0  0  0  0  0  0  0  0  0
   22.9940   18.1920    6.1120 C   0  0  0  0  0  0  0  0  0  0  0  0
   22.5610   16.8820    6.5000 O   0  0  0  0  0  0  0  0  0  0  0  0
   12.2690   12.3770    4.1880 C   0  0  0  0  0  0  0  0  0  0  0  0
   10.3060   14.4130    5.7690 O   0  0  0  0  0  0  0  0  0  0  0  0
    9.5140   13.9130    4.9770 C   0  0  0  0  0  0  0  0  0  0  0  0
    7.9910   13.9550    5.1970 C   0  0  0  0  0  0  0  0  0  0  0  0
    7.1240   13.3710    4.4170 N   0  0  0  0  0  0  0  0  0  0  0  0
    7.6460   12.7120    3.3320 C   0  0  0  0  0  0  0  0  0  0  0  0
    8.9540   12.6500    3.0710 C   0  0  0  0  0  0  0  0  0  0  0  0
    9.9000   13.2190    3.8610 N   0  0  0  0  0  0  0  0  0  0  0  0
   11.2380   13.0360    3.2470 C   0  0  2  0  0  0  0  0  0  0  0  0
   10.9440   12.1450    2.0050 C   0  0  0  0  0  0  0  0  0  0  0  0
    9.4910   12.0180    2.0000 N   0  0  0  0  0  0  0  0  0  0  0  0
    8.7260   11.3550    1.0660 C   0  0  0  0  0  0  0  0  0  0  0  0
    9.1940   10.7610    0.1050 O   0  0  0  0  0  0  0  0  0  0  0  0
    7.2470   11.4080    1.3240 C   0  0  0  0  0  0  0  0  0  0  0  0
    6.7550   12.0550    2.4010 C   0  0  0  0  0  0  0  0  0  0  0  0
   14.1003   12.8514    5.0589 H   0  0  0  0  0  0  0  0  0  0  0  0
   13.0108   14.9763    3.3201 H   0  0  0  0  0  0  0  0  0  0  0  0
   12.8645   14.8910    5.1086 H   0  0  0  0  0  0  0  0  0  0  0  0
   14.7598   16.3429    4.3681 H   0  0  0  0  0  0  0  0  0  0  0  0
   15.3027   14.9171    5.3399 H   0  0  0  0  0  0  0  0  0  0  0  0
   15.3838   15.1707    2.2920 H   0  0  0  0  0  0  0  0  0  0  0  0
   16.4991   13.0109    2.3113 H   0  0  0  0  0  0  0  0  0  0  0  0
   16.3515   12.9310    4.1121 H   0  0  0  0  0  0  0  0  0  0  0  0
   14.0567   12.9599    2.0919 H   0  0  0  0  0  0  0  0  0  0  0  0
   14.6050   11.5629    3.0826 H   0  0  0  0  0  0  0  0  0  0  0  0
   17.4299   15.9031    2.6213 H   0  0  0  0  0  0  0  0  0  0  0  0
   17.0451   16.0206    4.3070 H   0  0  0  0  0  0  0  0  0  0  0  0
   17.8732   13.6793    4.5289 H   0  0  0  0  0  0  0  0  0  0  0  0
   18.6347   13.9685    2.9200 H   0  0  0  0  0  0  0  0  0  0  0  0
   21.2849   14.8045    7.2089 H   0  0  0  0  0  0  0  0  0  0  0  0
   19.5815   16.7193    2.9932 H   0  0  0  0  0  0  0  0  0  0  0  0
   21.8191   18.0011    2.9038 H   0  0  0  0  0  0  0  0  0  0  0  0
   21.0925   19.0130    4.2075 H   0  0  0  0  0  0  0  0  0  0  0  0
   23.7919   17.5902    4.2050 H   0  0  0  0  0  0  0  0  0  0  0  0
   23.4629   19.3468    4.3544 H   0  0  0  0  0  0  0  0  0  0  0  0
   23.9835   18.3829    6.5530 H   0  0  0  0  0  0  0  0  0  0  0  0
   22.2477   18.9147    6.4736 H   0  0  0  0  0  0  0  0  0  0  0  0
   12.4309   11.3386    3.8630 H   0  0  0  0  0  0  0  0  0  0  0  0
   11.8661   12.4209    5.2106 H   0  0  0  0  0  0  0  0  0  0  0  0
    7.6104   14.5120    6.0658 H   0  0  0  0  0  0  0  0  0  0  0  0
   11.7039   14.0010    2.9985 H   0  0  0  0  0  0  0  0  0  0  0  0
   11.2976   12.6298    1.0831 H   0  0  0  0  0  0  0  0  0  0  0  0
   11.4546   11.1718    2.0508 H   0  0  0  0  0  0  0  0  0  0  0  0
    6.5561   10.9129    0.6258 H   0  0  0  0  0  0  0  0  0  0  0  0
    5.6688   12.0830    2.5722 H   0  0  0  0  0  0  0  0  0  0  0  0
  2  1  1  0
  3  2  1  0
  4  3  1  0
  5  4  1  0
  6  5  1  0
  6  1  1  0
  7  4  1  0
  8  7  1  0
  9  8  1  0
 10  9  2  0
 11 10  1  0
 12 11  2  0
 13 12  1  0
 14  9  1  0
 14 13  2  0
 15 13  1  0
 16 15  1  0
 17 16  1  0
 18 12  1  0
 18 17  1  0
 19  1  1  0
 21 20  2  0
 22 21  1  0
 23 22  2  0
 24 23  1  0
 25 24  2  0
 26 25  1  0
 26 21  1  0
 27 26  1  0
 27 19  1  0
 28 27  1  0
 29 25  1  0
 29 28  1  0
 30 29  1  0
 31 30  2  0
 32 30  1  0
 33 32  2  0
 33 24  1  0
  1 34  1  0
  2 35  1  0
  2 36  1  0
  3 37  1  0
  3 38  1  0
  4 39  1  0
  5 40  1  0
  5 41  1  0
  6 42  1  0
  6 43  1  0
  7 44  1  0
  7 45  1  0
  8 46  1  0
  8 47  1  0
 11 48  1  0
 14 49  1  0
 15 50  1  0
 15 51  1  0
 16 52  1  0
 16 53  1  0
 17 54  1  0
 17 55  1  0
 19 56  1  0
 19 57  1  0
 22 58  1  0
 27 59  1  6
 28 60  1  0
 28 61  1  0
 32 62  1  0
 33 63  1  0
M  CHG  2   1   1   7   1
M  END
$$$$
=
     RDKit          3D

 28 28  0  0  0  0  0  0  0  0999 V2000
   18.1700   15.9640    4.5080 C   0  0  1  0  0  0  0  0  0  0  0  0
   19.0400   17.0040    3.7830 C   0  0  0  0  0  0  0  0  0  0  0  0
   17.4680   16.6120    5.7110 C   0  0  0  0  0  0  0  0  0  0  0  0
   16.3200   15.7750    6.2720 C   0  0  0  0  0  0  0  0  0  0  0  0
   15.3280   15.3930    5.1770 C   0  0  0  0  0  0  0  0  0  0  0  0
   16.0150   14.6680    4.0330 C   0  0  0  0  0  0  0  0  0  0  0  0
   17.1250   15.5080    3.5030 N   0  0  0  0  0  4  0  0  0  0  0  0
   19.0370   14.7340    4.8810 C   0  0  0  0  0  0  0  0  0  0  0  0
   20.7010   14.9760    6.5470 C   0  0  0  0  0  0  0  0  0  0  0  0
   20.3580   15.2170    5.1820 O   0  0  0  0  0  0  0  0  0  0  0  0
   19.5612   17.6271    4.5247 H   0  0  0  0  0  0  0  0  0  0  0  0
   19.7795   16.4882    3.1528 H   0  0  0  0  0  0  0  0  0  0  0  0
   18.4017   17.6408    3.1528 H   0  0  0  0  0  0  0  0  0  0  0  0
   18.2111   16.7619    6.5081 H   0  0  0  0  0  0  0  0  0  0  0  0
   17.0347   17.5601    5.3597 H   0  0  0  0  0  0  0  0  0  0  0  0
   16.7303   14.8580    6.7200 H   0  0  0  0  0  0  0  0  0  0  0  0
   15.7904   16.3732    7.0281 H   0  0  0  0  0  0  0  0  0  0  0  0
   14.5577   14.7353    5.6059 H   0  0  0  0  0  0  0  0  0  0  0  0
   14.8784   16.3155    4.7810 H   0  0  0  0  0  0  0  0  0  0  0  0
   16.4207   13.7123    4.3965 H   0  0  0  0  0  0  0  0  0  0  0  0
   15.2862   14.4779    3.2313 H   0  0  0  0  0  0  0  0  0  0  0  0
   17.6084   14.9641    2.7740 H   0  0  0  0  0  0  0  0  0  0  0  0
   16.6762   16.3715    3.1658 H   0  0  0  0  0  0  0  0  0  0  0  0
   18.6124   14.2268    5.7599 H   0  0  0  0  0  0  0  0  0  0  0  0
   19.0660   14.0121    4.0515 H   0  0  0  0  0  0  0  0  0  0  0  0
   19.9779   15.4841    7.2020 H   0  0  0  0  0  0  0  0  0  0  0  0
   20.6783   13.8943    6.7453 H   0  0  0  0  0  0  0  0  0  0  0  0
   21.7110   15.3640    6.7453 H   0  0  0  0  0  0  0  0  0  0  0  0
  1  2  1  6
  3  1  1  0
  4  3  1  0
  5  4  1  0
  6  5  1  0
  7  6  1  0
  7  1  1  0
  8  1  1  0
 10  8  1  0
 10  9  1  0
  2 11  1  0
  2 12  1  0
  2 13  1  0
  3 14  1  0
  3 15  1  0
  4 16  1  0
  4 17  1  0
  5 18  1  0
  5 19  1  0
  6 20  1  0
  6 21  1  0
  7 22  1  0
  7 23  1  0
  8 24  1  0
  8 25  1  0
  9 26  1  0
  9 27  1  0
  9 28  1  0
M  CHG  1   7   1
M  END
$$$$
=
     RDKit          3D

 38 39  0  0  0  0  0  0  0  0999 V2000
   18.4350   17.4320    5.5340 C   0  0  0  0  0  0  0  0  0  0  0  0
   19.4900   16.9060    4.5250 N   0  0  2  0  0  4  0  0  0  0  0  0
   20.1230   15.5500    4.8300 C   0  0  0  0  0  0  0  0  0  0  0  0
   20.9010   15.4840    6.1660 C   0  0  0  0  0  0  0  0  0  0  0  0
   22.2260   16.1870    6.1250 N   0  0  0  0  0  4  0  0  0  0  0  0
   22.2330   17.6380    5.7790 C   0  0  0  0  0  0  0  0  0  0  0  0
   21.8860   17.8340    4.3150 C   0  0  0  0  0  0  0  0  0  0  0  0
   20.4010   18.0140    4.0250 C   0  0  0  0  0  0  0  0  0  0  0  0
   17.3900   16.3750    5.9250 C   0  0  0  0  0  0  0  0  0  0  0  0
   16.2000   16.5410    5.1530 O   0  0  0  0  0  0  0  0  0  0  0  0
   14.5290   12.0220    2.5300 F   0  0  0  0  0  0  0  0  0  0  0  0
   14.9020   13.1380    3.1650 C   0  0  0  0  0  0  0  0  0  0  0  0
   13.9660   13.8520    3.9040 C   0  0  0  0  0  0  0  0  0  0  0  0
   14.3500   15.0150    4.5810 C   0  0  0  0  0  0  0  0  0  0  0  0
   15.6740   15.4540    4.5110 C   0  0  0  0  0  0  0  0  0  0  0  0
   16.6040   14.7250    3.7590 C   0  0  0  0  0  0  0  0  0  0  0  0
   16.2190   13.5660    3.0850 C   0  0  0  0  0  0  0  0  0  0  0  0
   18.9564   17.7615    6.4448 H   0  0  0  0  0  0  0  0  0  0  0  0
   17.8973   18.2569    5.0438 H   0  0  0  0  0  0  0  0  0  0  0  0
   18.9559   16.6176    3.6929 H   0  0  0  0  0  0  0  0  0  0  0  0
   19.3213   14.7976    4.8631 H   0  0  0  0  0  0  0  0  0  0  0  0
   20.8586   15.3649    4.0333 H   0  0  0  0  0  0  0  0  0  0  0  0
   20.2851   15.9483    6.9503 H   0  0  0  0  0  0  0  0  0  0  0  0
   21.1053   14.4222    6.3681 H   0  0  0  0  0  0  0  0  0  0  0  0
   22.6535   16.0914    7.0572 H   0  0  0  0  0  0  0  0  0  0  0  0
   22.7363   15.7339    5.3535 H   0  0  0  0  0  0  0  0  0  0  0  0
   21.4922   18.1624    6.4005 H   0  0  0  0  0  0  0  0  0  0  0  0
   23.2380   18.0445    5.9651 H   0  0  0  0  0  0  0  0  0  0  0  0
   22.4151   18.7289    3.9555 H   0  0  0  0  0  0  0  0  0  0  0  0
   22.1907   16.9110    3.8000 H   0  0  0  0  0  0  0  0  0  0  0  0
   20.2766   18.0867    2.9345 H   0  0  0  0  0  0  0  0  0  0  0  0
   20.0978   18.9191    4.5716 H   0  0  0  0  0  0  0  0  0  0  0  0
   17.8033   15.3721    5.7425 H   0  0  0  0  0  0  0  0  0  0  0  0
   17.1434   16.4945    6.9903 H   0  0  0  0  0  0  0  0  0  0  0  0
   12.9241   13.5031    3.9566 H   0  0  0  0  0  0  0  0  0  0  0  0
   13.6112   15.5818    5.1666 H   0  0  0  0  0  0  0  0  0  0  0  0
   17.6470   15.0694    3.6994 H   0  0  0  0  0  0  0  0  0  0  0  0
   16.9529   12.9968    2.4956 H   0  0  0  0  0  0  0  0  0  0  0  0
  2  1  1  0
  3  2  1  0
  4  3  1  0
  5  4  1  0
  6  5  1  0
  7  6  1  0
  8  2  1  0
  8  7  1  0
  9  1  1  0
 10  9  1  0
 12 11  1  0
 13 12  2  0
 14 13  1  0
 15 14  2  0
 15 10  1  0
 16 15  1  0
 17 12  1  0
 17 16  2  0
  1 18  1  0
  1 19  1  0
  2 20  1  6
  3 21  1  0
  3 22  1  0
  4 23  1  0
  4 24  1  0
  5 25  1  0
  5 26  1  0
  6 27  1  0
  6 28  1  0
  7 29  1  0
  7 30  1  0
  8 31  1  0
  8 32  1  0
  9 33  1  0
  9 34  1  0
 13 35  1  0
 14 36  1  0
 16 37  1  0
 17 38  1  0
M  CHG  2   2   1   5   1
M  END
$$$$
=
     RDKit          3D

 38 39  0  0  0  0  0  0  0  0999 V2000
   17.9180   14.1030    3.2500 C   0  0  2  0  0  0  0  0  0  0  0  0
   18.9290   14.5500    4.3460 C   0  0  0  0  0  0  0  0  0  0  0  0
   19.0780   13.8020    5.3190 O   0  0  0  0  0  0  0  0  0  0  0  0
   19.6520   15.7300    4.2240 N   0  0  0  0  0  0  0  0  0  0  0  0
   20.5780   16.1020    5.3110 C   0  0  0  0  0  0  0  0  0  0  0  0
   20.6200   17.6170    5.5710 C   0  0  0  0  0  0  0  0  0  0  0  0
   20.9340   18.4110    4.3030 N   0  0  0  0  0  4  0  0  0  0  0  0
   20.7840   17.6220    3.0110 C   0  0  0  0  0  0  0  0  0  0  0  0
   19.5800   16.6610    3.0840 C   0  0  0  0  0  0  0  0  0  0  0  0
   22.2730   19.1040    4.3760 C   0  0  0  0  0  0  0  0  0  0  0  0
   16.4740   14.3240    3.6340 C   0  0  0  0  0  0  0  0  0  0  0  0
   16.0740   15.4650    4.3530 C   0  0  0  0  0  0  0  0  0  0  0  0
   14.7380   15.6370    4.7170 C   0  0  0  0  0  0  0  0  0  0  0  0
   13.7910   14.6750    4.3790 C   0  0  0  0  0  0  0  0  0  0  0  0
   14.1750   13.5340    3.6800 C   0  0  0  0  0  0  0  0  0  0  0  0
   15.5090   13.3540    3.3120 C   0  0  0  0  0  0  0  0  0  0  0  0
   18.1350   12.6460    2.9370 N   0  0  0  0  0  4  0  0  0  0  0  0
   18.1091   14.7311    2.3674 H   0  0  0  0  0  0  0  0  0  0  0  0
   20.2568   15.5966    6.2337 H   0  0  0  0  0  0  0  0  0  0  0  0
   21.5879   15.7923    5.0040 H   0  0  0  0  0  0  0  0  0  0  0  0
   19.6410   17.9377    5.9567 H   0  0  0  0  0  0  0  0  0  0  0  0
   21.4205   17.8130    6.2996 H   0  0  0  0  0  0  0  0  0  0  0  0
   20.2035   19.1363    4.2672 H   0  0  0  0  0  0  0  0  0  0  0  0
   20.6338   18.3234    2.1771 H   0  0  0  0  0  0  0  0  0  0  0  0
   21.6966   17.0276    2.8566 H   0  0  0  0  0  0  0  0  0  0  0  0
   19.5436   16.0741    2.1544 H   0  0  0  0  0  0  0  0  0  0  0  0
   18.6775   17.2754    3.2186 H   0  0  0  0  0  0  0  0  0  0  0  0
   22.5537   19.2493    5.4296 H   0  0  0  0  0  0  0  0  0  0  0  0
   23.0334   18.4862    3.8758 H   0  0  0  0  0  0  0  0  0  0  0  0
   22.2077   20.0815    3.8758 H   0  0  0  0  0  0  0  0  0  0  0  0
   16.8186   16.2259    4.6298 H   0  0  0  0  0  0  0  0  0  0  0  0
   14.4324   16.5357    5.2728 H   0  0  0  0  0  0  0  0  0  0  0  0
   12.7381   14.8163    4.6644 H   0  0  0  0  0  0  0  0  0  0  0  0
   13.4255   12.7729    3.4173 H   0  0  0  0  0  0  0  0  0  0  0  0
   15.8074   12.4468    2.7662 H   0  0  0  0  0  0  0  0  0  0  0  0
   18.2142   12.1142    3.8155 H   0  0  0  0  0  0  0  0  0  0  0  0
   17.3378   12.2898    2.3907 H   0  0  0  0  0  0  0  0  0  0  0  0
   19.0014   12.5375    2.3907 H   0  0  0  0  0  0  0  0  0  0  0  0
  2  1  1  0
  3  2  2  0
  4  2  1  0
  5  4  1  0
  6  5  1  0
  7  6  1  0
  8  7  1  0
  9  4  1  0
  9  8  1  0
 10  7  1  0
 11  1  1  0
 12 11  2  0
 13 12  1  0
 14 13  2  0
 15 14  1  0
 16 15  2  0
 16 11  1  0
 17  1  1  0
  1 18  1  6
  5 19  1  0
  5 20  1  0
  6 21  1  0
  6 22  1  0
  7 23  1  0
  8 24  1  0
  8 25  1  0
  9 26  1  0
  9 27  1  0
 10 28  1  0
 10 29  1  0
 10 30  1  0
 12 31  1  0
 13 32  1  0
 14 33  1  0
 15 34  1  0
 16 35  1  0
 17 36  1  0
 17 37  1  0
 17 38  1  0
M  CHG  2   7   1  17   1
M  END
$$$$
=
     RDKit          3D

 31 32  0  0  0  0  0  0  0  0999 V2000
   19.8100   16.2670    5.4100 C   0  0  2  0  0  0  0  0  0  0  0  0
   19.9880   15.7080    3.9850 C   0  0  0  0  0  0  0  0  0  0  0  0
   18.8720   14.7150    3.6530 C   0  0  0  0  0  0  0  0  0  0  0  0
   17.5310   15.0980    4.2850 C   0  0  0  0  0  0  0  0  0  0  0  0
   17.7470   15.7730    5.6540 C   0  0  1  0  0  0  0  0  0  0  0  0
   19.0500   15.2930    6.3820 C   0  0  0  0  0  0  0  0  0  0  0  0
   18.5010   17.1280    5.4860 C   0  0  0  0  0  0  0  0  0  0  0  0
   21.0980   16.9710    5.9420 C   0  0  0  0  0  0  0  0  0  0  0  0
   21.9500   16.4310    6.6440 O   0  0  0  0  0  0  0  0  0  0  0  0
   22.3220   18.5570    4.7150 C   0  0  0  0  0  0  0  0  0  0  0  0
   21.1730   18.2660    5.5150 O   0  0  0  0  0  0  0  0  0  0  0  0
   16.5020   15.8110    6.5240 C   0  0  0  0  0  0  0  0  0  0  0  0
   15.3180   15.2150    5.8550 N   0  0  0  0  0  4  0  0  0  0  0  0
   19.9590   16.5387    3.2645 H   0  0  0  0  0  0  0  0  0  0  0  0
   20.9552   15.1873    3.9264 H   0  0  0  0  0  0  0  0  0  0  0  0
   18.7480   14.6777    2.5606 H   0  0  0  0  0  0  0  0  0  0  0  0
   19.1649   13.7374    4.0636 H   0  0  0  0  0  0  0  0  0  0  0  0
   17.0034   15.7954    3.6177 H   0  0  0  0  0  0  0  0  0  0  0  0
   16.9351   14.1850    4.4309 H   0  0  0  0  0  0  0  0  0  0  0  0
   19.2892   14.2270    6.2538 H   0  0  0  0  0  0  0  0  0  0  0  0
   19.1686   15.3325    7.4749 H   0  0  0  0  0  0  0  0  0  0  0  0
   18.4396   17.8038    6.3518 H   0  0  0  0  0  0  0  0  0  0  0  0
   18.2312   17.8621    4.7125 H   0  0  0  0  0  0  0  0  0  0  0  0
   23.1790   18.7741    5.3695 H   0  0  0  0  0  0  0  0  0  0  0  0
   22.5559   17.6897    4.0801 H   0  0  0  0  0  0  0  0  0  0  0  0
   22.1149   19.4310    4.0801 H   0  0  0  0  0  0  0  0  0  0  0  0
   16.7021   15.2515    7.4497 H   0  0  0  0  0  0  0  0  0  0  0  0
   16.2717   16.8669    6.7291 H   0  0  0  0  0  0  0  0  0  0  0  0
   14.6534   14.8805    6.5672 H   0  0  0  0  0  0  0  0  0  0  0  0
   14.8615   15.9267    5.2668 H   0  0  0  0  0  0  0  0  0  0  0  0
   15.6178   14.4244    5.2668 H   0  0  0  0  0  0  0  0  0  0  0  0
  2  1  1  0
  3  2  1  0
  4  3  1  0
  5  4  1  0
  6  1  1  0
  6  5  1  0
  7  1  1  0
  7  5  1  0
  1  8  1  1
  9  8  2  0
 11  8  1  0
 11 10  1  0
  5 12  1  1
 13 12  1  0
  2 14  1  0
  2 15  1  0
  3 16  1  0
  3 17  1  0
  4 18  1  0
  4 19  1  0
  6 20  1  0
  6 21  1  0
  7 22  1  0
  7 23  1  0
 10 24  1  0
 10 25  1  0
 10 26  1  0
 12 27  1  0
 12 28  1  0
 13 29  1  0
 13 30  1  0
 13 31  1  0
M  CHG  1  13   1
M  END
$$$$
=
     RDKit          3D

 12 11  0  0  0  0  0  0  0  0999 V2000
   19.6560   16.2540    2.7490 N   0  0  0  0  0  4  0  0  0  0  0  0
   18.5410   15.8300    3.6040 C   0  0  0  0  0  0  0  0  0  0  0  0
   18.8360   14.1650    4.0640 Cl  0  0  0  0  0  0  0  0  0  0  0  0
   19.5240   17.5490    2.0900 C   0  0  0  0  0  0  0  0  0  0  0  0
   20.4610   17.6120    1.0540 O   0  0  0  0  0  0  0  0  0  0  0  0
   20.5026   16.2872    3.3347 H   0  0  0  0  0  0  0  0  0  0  0  0
   19.6868   15.5644    1.9845 H   0  0  0  0  0  0  0  0  0  0  0  0
   18.4927   16.4648    4.5010 H   0  0  0  0  0  0  0  0  0  0  0  0
   17.5847   15.9210    3.0681 H   0  0  0  0  0  0  0  0  0  0  0  0
   18.5088   17.6561    1.6803 H   0  0  0  0  0  0  0  0  0  0  0  0
   19.7009   18.3608    2.8109 H   0  0  0  0  0  0  0  0  0  0  0  0
   21.3721   17.6733    1.4364 H   0  0  0  0  0  0  0  0  0  0  0  0
  2  1  1  0
  3  2  1  0
  4  1  1  0
  5  4  1  0
  1  6  1  0
  1  7  1  0
  2  8  1  0
  2  9  1  0
  4 10  1  0
  4 11  1  0
  5 12  1  0
M  CHG  1   1   1
M  END
$$$$
=
     RDKit          3D

 75 78  0  0  0  0  0  0  0  0999 V2000
   24.2300   26.7220   15.6470 C   0  0  2  0  0  0  0  0  0  0  0  0
   24.0230   25.6410   13.3690 C   0  0  0  0  0  0  0  0  0  0  0  0
   24.1150   24.4980   13.8190 O   0  0  0  0  0  0  0  0  0  0  0  0
   23.9370   26.7380   14.1950 N   0  0  0  0  0  0  0  0  0  0  0  0
   19.2500   23.7980   11.4520 C   0  0  0  0  0  0  0  0  0  0  0  0
   20.1160   22.7940   11.0430 C   0  0  0  0  0  0  0  0  0  0  0  0
   21.4760   23.0750   10.9120 C   0  0  0  0  0  0  0  0  0  0  0  0
   21.9710   24.3580   11.1980 C   0  0  0  0  0  0  0  0  0  0  0  0
   21.0800   25.3780   11.5840 C   0  0  0  0  0  0  0  0  0  0  0  0
   19.7180   25.0790   11.7210 C   0  0  0  0  0  0  0  0  0  0  0  0
   21.5480   26.7730   11.8870 C   0  0  0  0  0  0  0  0  0  0  0  0
   22.9770   27.0220   11.5170 N   0  0  0  0  0  4  0  0  0  0  0  0
   23.9080   25.8590   11.8330 C   0  0  2  0  0  0  0  0  0  0  0  0
   23.4420   24.6420   11.0290 C   0  0  0  0  0  0  0  0  0  0  0  0
   17.9160   23.5780   11.6030 O   0  0  0  0  0  0  0  0  0  0  0  0
   22.9310   26.7260   16.5050 C   0  0  0  0  0  0  0  0  0  0  0  0
   22.0920   25.4520   16.3920 C   0  0  0  0  0  0  0  0  0  0  0  0
   23.2260   27.0220   17.9810 C   0  0  0  0  0  0  0  0  0  0  0  0
   25.3010   27.7720   16.0990 C   0  0  0  0  0  0  0  0  0  0  0  0
   26.7250   27.4180   15.6950 N   0  0  1  0  0  4  0  0  0  0  0  0
   27.4320   28.4920   14.9010 C   0  0  0  0  0  0  0  0  0  0  0  0
   28.9390   28.2400   14.8180 C   0  0  0  0  0  0  0  0  0  0  0  0
   29.3240   26.7440   14.9760 C   0  0  2  0  0  0  0  0  0  0  0  0
   28.8920   26.3460   16.4440 C   0  0  2  0  0  0  0  0  0  0  0  0
   27.5500   26.9780   16.8800 C   0  0  0  0  0  0  0  0  0  0  0  0
   29.9280   26.6810   17.5360 C   0  0  0  0  0  0  0  0  0  0  0  0
   30.8500   26.5870   14.7800 C   0  0  0  0  0  0  0  0  0  0  0  0
   28.6520   25.9060   13.8510 C   0  0  0  0  0  0  0  0  0  0  0  0
   28.7250   26.3370   12.5090 C   0  0  0  0  0  0  0  0  0  0  0  0
   28.0990   25.6340   11.4730 C   0  0  0  0  0  0  0  0  0  0  0  0
   27.3840   24.4740   11.7460 C   0  0  0  0  0  0  0  0  0  0  0  0
   27.3230   24.0220   13.0550 C   0  0  0  0  0  0  0  0  0  0  0  0
   27.9570   24.7080   14.0910 C   0  0  0  0  0  0  0  0  0  0  0  0
   26.6280   22.8970   13.3850 O   0  0  0  0  0  0  0  0  0  0  0  0
   24.7214   25.7580   15.8451 H   0  0  0  0  0  0  0  0  0  0  0  0
   23.6487   27.6329   13.7743 H   0  0  0  0  0  0  0  0  0  0  0  0
   19.7337   21.7861   10.8241 H   0  0  0  0  0  0  0  0  0  0  0  0
   22.1667   22.2851   10.5819 H   0  0  0  0  0  0  0  0  0  0  0  0
   19.0156   25.8619   12.0430 H   0  0  0  0  0  0  0  0  0  0  0  0
   20.9165   27.4800   11.3290 H   0  0  0  0  0  0  0  0  0  0  0  0
   21.4694   26.9091   12.9757 H   0  0  0  0  0  0  0  0  0  0  0  0
   23.0223   27.2079   10.5049 H   0  0  0  0  0  0  0  0  0  0  0  0
   23.2966   27.8225   12.0808 H   0  0  0  0  0  0  0  0  0  0  0  0
   24.9414   26.0692   11.5202 H   0  0  0  0  0  0  0  0  0  0  0  0
   23.6441   24.8264    9.9636 H   0  0  0  0  0  0  0  0  0  0  0  0
   23.9932   23.7669   11.4037 H   0  0  0  0  0  0  0  0  0  0  0  0
   17.3229   24.3144   11.8963 H   0  0  0  0  0  0  0  0  0  0  0  0
   22.3257   27.5393   16.0782 H   0  0  0  0  0  0  0  0  0  0  0  0
   21.8487   25.0826   17.3992 H   0  0  0  0  0  0  0  0  0  0  0  0
   21.1619   25.6726   15.8478 H   0  0  0  0  0  0  0  0  0  0  0  0
   22.6620   24.6846   15.8478 H   0  0  0  0  0  0  0  0  0  0  0  0
   22.5921   26.3860   18.6163 H   0  0  0  0  0  0  0  0  0  0  0  0
   24.2849   26.8121   18.1925 H   0  0  0  0  0  0  0  0  0  0  0  0
   23.0126   28.0802   18.1925 H   0  0  0  0  0  0  0  0  0  0  0  0
   25.0451   28.7426   15.6490 H   0  0  0  0  0  0  0  0  0  0  0  0
   25.2790   27.7955   17.1985 H   0  0  0  0  0  0  0  0  0  0  0  0
   26.6285   26.6194   15.0517 H   0  0  0  0  0  0  0  0  0  0  0  0
   27.0179   28.5120   13.8821 H   0  0  0  0  0  0  0  0  0  0  0  0
   27.2743   29.4535   15.4115 H   0  0  0  0  0  0  0  0  0  0  0  0
   29.2977   28.5908   13.8391 H   0  0  0  0  0  0  0  0  0  0  0  0
   29.4057   28.7851   15.6517 H   0  0  0  0  0  0  0  0  0  0  0  0
   28.7960   25.2529   16.3672 H   0  0  0  0  0  0  0  0  0  0  0  0
   27.7579   27.8530   17.5134 H   0  0  0  0  0  0  0  0  0  0  0  0
   26.9775   26.2173   17.4310 H   0  0  0  0  0  0  0  0  0  0  0  0
   29.4756   26.5347   18.5279 H   0  0  0  0  0  0  0  0  0  0  0  0
   30.8001   26.0191   17.4295 H   0  0  0  0  0  0  0  0  0  0  0  0
   30.2474   27.7282   17.4295 H   0  0  0  0  0  0  0  0  0  0  0  0
   31.3425   26.5363   15.7623 H   0  0  0  0  0  0  0  0  0  0  0  0
   31.0545   25.6631   14.2192 H   0  0  0  0  0  0  0  0  0  0  0  0
   31.2383   27.4499   14.2192 H   0  0  0  0  0  0  0  0  0  0  0  0
   29.2894   27.2506   12.2706 H   0  0  0  0  0  0  0  0  0  0  0  0
   28.1733   26.0012   10.4387 H   0  0  0  0  0  0  0  0  0  0  0  0
   26.8764   23.9252   10.9391 H   0  0  0  0  0  0  0  0  0  0  0  0
   27.9123   24.3045   15.1133 H   0  0  0  0  0  0  0  0  0  0  0  0
   26.5977   22.5922   14.3264 H   0  0  0  0  0  0  0  0  0  0  0  0
  3  2  2  0
  4  2  1  0
  4  1  1  0
  6  5  2  0
  7  6  1  0
  8  7  2  0
  9  8  1  0
 10  9  2  0
 10  5  1  0
 11  9  1  0
 12 11  1  0
 13 12  1  0
 13  2  1  0
 14 13  1  0
 14  8  1  0
 15  5  1  0
 16  1  1  0
 17 16  1  0
 18 16  1  0
 19  1  1  0
 20 19  1  0
 21 20  1  0
 22 21  1  0
 23 22  1  0
 24 23  1  0
 25 20  1  0
 25 24  1  0
 26 24  1  0
 23 27  1  1
 28 23  1  0
 29 28  2  0
 30 29  1  0
 31 30  2  0
 32 31  1  0
 33 32  2  0
 33 28  1  0
 34 32  1  0
  1 35  1  6
  4 36  1  0
  6 37  1  0
  7 38  1  0
 10 39  1  0
 11 40  1  0
 11 41  1  0
 12 42  1  0
 12 43  1  0
 13 44  1  6
 14 45  1  0
 14 46  1  0
 15 47  1  0
 16 48  1  0
 17 49  1  0
 17 50  1  0
 17 51  1  0
 18 52  1  0
 18 53  1  0
 18 54  1  0
 19 55  1  0
 19 56  1  0
 20 57  1  6
 21 58  1  0
 21 59  1  0
 22 60  1  0
 22 61  1  0
 24 62  1  6
 25 63  1  0
 25 64  1  0
 26 65  1  0
 26 66  1  0
 26 67  1  0
 27 68  1  0
 27 69  1  0
 27 70  1  0
 29 71  1  0
 30 72  1  0
 31 73  1  0
 33 74  1  0
 34 75  1  0
M  CHG  2  12   1  20   1
M  END
$$$$
=
     RDKit          3D

 38 38  0  0  0  0  0  0  0  0999 V2000
   21.7540   15.9040    7.0560 O   0  0  0  0  0  0  0  0  0  0  0  0
   21.2730   16.0630    5.9450 C   0  0  0  0  0  0  0  0  0  0  0  0
   19.9870   15.6960    5.6410 N   0  0  0  0  0  0  0  0  0  0  0  0
   19.2230   14.6420    6.2980 C   0  0  0  0  0  0  0  0  0  0  0  0
   18.2070   14.8480    5.1430 C   0  0  0  0  0  0  0  0  0  0  0  0
   19.4120   15.4070    4.3350 C   0  0  0  0  0  0  0  0  0  0  0  0
   17.0160   15.7860    5.4080 C   0  0  0  0  0  0  0  0  0  0  0  0
   16.4760   15.5460    6.8230 C   0  0  0  0  0  0  0  0  0  0  0  0
   15.9090   15.5190    4.3820 C   0  0  0  0  0  0  0  0  0  0  0  0
   17.3620   17.2440    5.3130 N   0  0  0  0  0  4  0  0  0  0  0  0
   21.8700   16.6490    4.8820 O   0  0  0  0  0  0  0  0  0  0  0  0
   21.9850   18.0950    4.7990 C   0  0  0  0  0  0  0  0  0  0  0  0
   20.9290   18.7860    5.6690 C   0  0  0  0  0  0  0  0  0  0  0  0
   21.7000   18.4220    3.3260 C   0  0  0  0  0  0  0  0  0  0  0  0
   23.4040   18.5610    5.1400 C   0  0  0  0  0  0  0  0  0  0  0  0
   19.7104   13.6562    6.3230 H   0  0  0  0  0  0  0  0  0  0  0  0
   18.9399   14.6788    7.3603 H   0  0  0  0  0  0  0  0  0  0  0  0
   17.5711   14.0371    4.7583 H   0  0  0  0  0  0  0  0  0  0  0  0
   19.9594   14.6644    3.7360 H   0  0  0  0  0  0  0  0  0  0  0  0
   19.3055   16.1647    3.5447 H   0  0  0  0  0  0  0  0  0  0  0  0
   17.2214   15.8773    7.5610 H   0  0  0  0  0  0  0  0  0  0  0  0
   15.5449   16.1150    6.9615 H   0  0  0  0  0  0  0  0  0  0  0  0
   16.2744   14.4735    6.9615 H   0  0  0  0  0  0  0  0  0  0  0  0
   14.9693   15.2924    4.9070 H   0  0  0  0  0  0  0  0  0  0  0  0
   15.7710   16.4096    3.7513 H   0  0  0  0  0  0  0  0  0  0  0  0
   16.1922   14.6634    3.7513 H   0  0  0  0  0  0  0  0  0  0  0  0
   17.4553   17.6372    6.2604 H   0  0  0  0  0  0  0  0  0  0  0  0
   18.2523   17.3533    4.8067 H   0  0  0  0  0  0  0  0  0  0  0  0
   16.6158   17.7417    4.8067 H   0  0  0  0  0  0  0  0  0  0  0  0
   21.1690   18.6290    6.7310 H   0  0  0  0  0  0  0  0  0  0  0  0
   20.9219   19.8640    5.4502 H   0  0  0  0  0  0  0  0  0  0  0  0
   19.9383   18.3609    5.4502 H   0  0  0  0  0  0  0  0  0  0  0  0
   20.9783   19.2501    3.2672 H   0  0  0  0  0  0  0  0  0  0  0  0
   22.6358   18.7152    2.8278 H   0  0  0  0  0  0  0  0  0  0  0  0
   21.2817   17.5350    2.8278 H   0  0  0  0  0  0  0  0  0  0  0  0
   23.5243   18.6005    6.2327 H   0  0  0  0  0  0  0  0  0  0  0  0
   24.1335   17.8552    4.7161 H   0  0  0  0  0  0  0  0  0  0  0  0
   23.5731   19.5619    4.7161 H   0  0  0  0  0  0  0  0  0  0  0  0
  2  1  2  0
  3  2  1  0
  4  3  1  0
  5  4  1  0
  6  5  1  0
  6  3  1  0
  7  5  1  0
  8  7  1  0
  9  7  1  0
 10  7  1  0
 11  2  1  0
 12 11  1  0
 13 12  1  0
 14 12  1  0
 15 12  1  0
  4 16  1  0
  4 17  1  0
  5 18  1  0
  6 19  1  0
  6 20  1  0
  8 21  1  0
  8 22  1  0
  8 23  1  0
  9 24  1  0
  9 25  1  0
  9 26  1  0
 10 27  1  0
 10 28  1  0
 10 29  1  0
 13 30  1  0
 13 31  1  0
 13 32  1  0
 14 33  1  0
 14 34  1  0
 14 35  1  0
 15 36  1  0
 15 37  1  0
 15 38  1  0
M  CHG  1  10   1
M  END
$$$$
=
     RDKit          3D

 53 55  0  0  0  0  0  0  0  0999 V2000
   18.0680   14.4270    3.9130 C   0  0  0  0  0  0  0  0  0  0  0  0
   18.2980   13.3120    3.1010 C   0  0  0  0  0  0  0  0  0  0  0  0
   17.2350   12.5040    2.6650 C   0  0  0  0  0  0  0  0  0  0  0  0
   15.9270   12.8010    3.0400 C   0  0  0  0  0  0  0  0  0  0  0  0
   15.6840   13.8960    3.8520 C   0  0  0  0  0  0  0  0  0  0  0  0
   16.7560   14.7070    4.2940 C   0  0  0  0  0  0  0  0  0  0  0  0
   16.3050   15.8550    5.1860 C   0  0  1  0  0  0  0  0  0  0  0  0
   15.2940   16.6920    4.3720 C   0  0  0  0  0  0  0  0  0  0  0  0
   14.1270   15.8030    3.8850 C   0  0  0  0  0  0  0  0  0  0  0  0
   14.3250   14.3470    4.3590 C   0  0  2  0  0  0  0  0  0  0  0  0
   14.3950   14.3440    5.9000 C   0  0  0  0  0  0  0  0  0  0  0  0
   15.5630   15.2320    6.3880 C   0  0  0  0  0  0  0  0  0  0  0  0
   14.8830   12.0340    2.6280 O   0  0  0  0  0  0  0  0  0  0  0  0
   19.0300   15.2690    4.3930 O   0  0  0  0  0  0  0  0  0  0  0  0
   20.2350   14.6740    4.8700 C   0  0  0  0  0  0  0  0  0  0  0  0
   20.4910   15.2690    6.2600 C   0  0  1  0  0  0  0  0  0  0  0  0
   21.2600   14.3480    7.0390 O   0  0  0  0  0  0  0  0  0  0  0  0
   21.2570   16.6000    6.1940 C   0  0  0  0  0  0  0  0  0  0  0  0
   21.6670   16.9130    4.7770 N   0  0  0  0  0  4  0  0  0  0  0  0
   21.1790   18.2110    4.1520 C   0  0  0  0  0  0  0  0  0  0  0  0
   22.3250   19.2190    4.3100 C   0  0  0  0  0  0  0  0  0  0  0  0
   19.9450   18.7070    4.9090 C   0  0  0  0  0  0  0  0  0  0  0  0
   20.8810   17.9920    2.6670 C   0  0  0  0  0  0  0  0  0  0  0  0
   19.3264   13.0641    2.7993 H   0  0  0  0  0  0  0  0  0  0  0  0
   17.4365   11.6327    2.0245 H   0  0  0  0  0  0  0  0  0  0  0  0
   17.1492   16.4747    5.5226 H   0  0  0  0  0  0  0  0  0  0  0  0
   14.8958   17.4972    5.0069 H   0  0  0  0  0  0  0  0  0  0  0  0
   15.8065   17.1188    3.4973 H   0  0  0  0  0  0  0  0  0  0  0  0
   13.1816   16.1911    4.2918 H   0  0  0  0  0  0  0  0  0  0  0  0
   14.1007   15.8197    2.7854 H   0  0  0  0  0  0  0  0  0  0  0  0
   13.5106   13.7008    3.9997 H   0  0  0  0  0  0  0  0  0  0  0  0
   13.4497   14.7327    6.3066 H   0  0  0  0  0  0  0  0  0  0  0  0
   14.5606   13.3136    6.2478 H   0  0  0  0  0  0  0  0  0  0  0  0
   16.2665   14.6180    6.9694 H   0  0  0  0  0  0  0  0  0  0  0  0
   15.1585   16.0402    7.0151 H   0  0  0  0  0  0  0  0  0  0  0  0
   13.9608   12.2626    2.9060 H   0  0  0  0  0  0  0  0  0  0  0  0
   20.1189   13.5823    4.9390 H   0  0  0  0  0  0  0  0  0  0  0  0
   21.0755   14.8748    4.1893 H   0  0  0  0  0  0  0  0  0  0  0  0
   19.5085   15.4566    6.7177 H   0  0  0  0  0  0  0  0  0  0  0  0
   21.1116   14.5257    8.0016 H   0  0  0  0  0  0  0  0  0  0  0  0
   20.6103   17.4071    6.5688 H   0  0  0  0  0  0  0  0  0  0  0  0
   22.1628   16.5162    6.8125 H   0  0  0  0  0  0  0  0  0  0  0  0
   22.6966   16.9330    4.7554 H   0  0  0  0  0  0  0  0  0  0  0  0
   21.2166   16.1767    4.2149 H   0  0  0  0  0  0  0  0  0  0  0  0
   22.5187   19.3893    5.3793 H   0  0  0  0  0  0  0  0  0  0  0  0
   23.2321   18.8208    3.8320 H   0  0  0  0  0  0  0  0  0  0  0  0
   22.0458   20.1695    3.8320 H   0  0  0  0  0  0  0  0  0  0  0  0
   20.1253   18.6345    5.9917 H   0  0  0  0  0  0  0  0  0  0  0  0
   19.7463   19.7549    4.6397 H   0  0  0  0  0  0  0  0  0  0  0  0
   19.0764   18.0882    4.6397 H   0  0  0  0  0  0  0  0  0  0  0  0
   19.9987   17.3436    2.5618 H   0  0  0  0  0  0  0  0  0  0  0  0
   20.6832   18.9612    2.1859 H   0  0  0  0  0  0  0  0  0  0  0  0
   21.7469   17.5138    2.1859 H   0  0  0  0  0  0  0  0  0  0  0  0
  2  1  2  0
  3  2  1  0
  4  3  2  0
  5  4  1  0
  6  5  2  0
  6  1  1  0
  7  6  1  0
  8  7  1  0
  9  8  1  0
 10  9  1  0
 10  5  1  0
 11 10  1  0
 12  7  1  0
 12 11  1  0
 13  4  1  0
 14  1  1  0
 15 14  1  0
 16 15  1  0
 17 16  1  0
 18 16  1  0
 19 18  1  0
 20 19  1  0
 21 20  1  0
 22 20  1  0
 23 20  1  0
  2 24  1  0
  3 25  1  0
  7 26  1  1
  8 27  1  0
  8 28  1  0
  9 29  1  0
  9 30  1  0
 10 31  1  1
 11 32  1  0
 11 33  1  0
 12 34  1  0
 12 35  1  0
 13 36  1  0
 15 37  1  0
 15 38  1  0
 16 39  1  1
 17 40  1  0
 18 41  1  0
 18 42  1  0
 19 43  1  0
 19 44  1  0
 21 45  1  0
 21 46  1  0
 21 47  1  0
 22 48  1  0
 22 49  1  0
 22 50  1  0
 23 51  1  0
 23 52  1  0
 23 53  1  0
M  CHG  1  19   1
M  END
$$$$
=
     RDKit          3D

 37 38  0  0  0  0  0  0  0  0999 V2000
   11.2350   12.9270    3.0490 C   0  0  0  0  0  0  0  0  0  0  0  0
   10.8070   13.9090    3.8610 N   0  0  0  0  0  0  0  0  0  0  0  0
   11.9540   14.5020    4.2680 N   0  0  0  0  0  0  0  0  0  0  0  0
   13.0890   13.9390    3.7410 C   0  0  0  0  0  0  0  0  0  0  0  0
   12.6410   12.8970    2.9510 C   0  0  0  0  0  0  0  0  0  0  0  0
   14.4390   14.4090    4.0430 C   0  0  0  0  0  0  0  0  0  0  0  0
   14.6610   15.2860    5.1080 C   0  0  0  0  0  0  0  0  0  0  0  0
   15.9500   15.7480    5.4070 C   0  0  0  0  0  0  0  0  0  0  0  0
   17.0630   15.3450    4.6540 C   0  0  0  0  0  0  0  0  0  0  0  0
   16.8270   14.4560    3.5900 C   0  0  0  0  0  0  0  0  0  0  0  0
   15.5400   13.9940    3.2890 C   0  0  0  0  0  0  0  0  0  0  0  0
   18.4940   15.8310    4.9550 C   0  0  0  0  0  0  0  0  0  0  0  0
   19.3440   15.7680    3.6680 C   0  0  0  0  0  0  0  0  0  0  0  0
   19.2250   14.9920    6.0270 C   0  0  0  0  0  0  0  0  0  0  0  0
   18.4510   17.2870    5.4650 C   0  0  0  0  0  0  0  0  0  0  0  0
   10.2260   12.0470    2.3910 C   0  0  0  0  0  0  0  0  0  0  0  0
   10.9100   10.8560    1.8250 N   0  0  0  0  0  4  0  0  0  0  0  0
   11.9730   15.3034    4.9148 H   0  0  0  0  0  0  0  0  0  0  0  0
   13.2528   12.1926    2.3684 H   0  0  0  0  0  0  0  0  0  0  0  0
   13.8107   15.6190    5.7213 H   0  0  0  0  0  0  0  0  0  0  0  0
   16.0919   16.4409    6.2495 H   0  0  0  0  0  0  0  0  0  0  0  0
   17.6754   14.1149    2.9786 H   0  0  0  0  0  0  0  0  0  0  0  0
   15.3940   13.2972    2.4504 H   0  0  0  0  0  0  0  0  0  0  0  0
   20.4082   15.6891    3.9349 H   0  0  0  0  0  0  0  0  0  0  0  0
   19.0484   14.8893    3.0760 H   0  0  0  0  0  0  0  0  0  0  0  0
   19.1811   16.6807    3.0760 H   0  0  0  0  0  0  0  0  0  0  0  0
   18.9258   15.3354    7.0283 H   0  0  0  0  0  0  0  0  0  0  0  0
   18.9576   13.9317    5.9079 H   0  0  0  0  0  0  0  0  0  0  0  0
   20.3120   15.1117    5.9079 H   0  0  0  0  0  0  0  0  0  0  0  0
   18.4509   17.2904    6.5650 H   0  0  0  0  0  0  0  0  0  0  0  0
   19.3335   17.8307    5.0968 H   0  0  0  0  0  0  0  0  0  0  0  0
   17.5380   17.7777    5.0968 H   0  0  0  0  0  0  0  0  0  0  0  0
    9.4799   11.7248    3.1323 H   0  0  0  0  0  0  0  0  0  0  0  0
    9.7225   12.6012    1.5851 H   0  0  0  0  0  0  0  0  0  0  0  0
   11.2524   10.2599    2.5920 H   0  0  0  0  0  0  0  0  0  0  0  0
   10.2467   10.3223    1.2453 H   0  0  0  0  0  0  0  0  0  0  0  0
   11.7052   11.1600    1.2453 H   0  0  0  0  0  0  0  0  0  0  0  0
  2  1  2  0
  3  2  1  0
  4  3  1  0
  5  4  2  0
  5  1  1  0
  6  4  1  0
  7  6  2  0
  8  7  1  0
  9  8  2  0
 10  9  1  0
 11  6  1  0
 11 10  2  0
 12  9  1  0
 13 12  1  0
 14 12  1  0
 15 12  1  0
 16  1  1  0
 17 16  1  0
  3 18  1  0
  5 19  1  0
  7 20  1  0
  8 21  1  0
 10 22  1  0
 11 23  1  0
 13 24  1  0
 13 25  1  0
 13 26  1  0
 14 27  1  0
 14 28  1  0
 14 29  1  0
 15 30  1  0
 15 31  1  0
 15 32  1  0
 16 33  1  0
 16 34  1  0
 17 35  1  0
 17 36  1  0
 17 37  1  0
M  CHG  1  17   1
M  END
$$$$
=
     RDKit          3D

 37 37  0  0  0  0  0  0  0  0999 V2000
   19.0790   15.9700    5.3280 C   0  0  2  0  0  0  0  0  0  0  0  0
   19.6350   14.7920    6.1380 C   0  0  0  0  0  0  0  0  0  0  0  0
   17.6570   15.7430    4.8510 C   0  0  0  0  0  0  0  0  0  0  0  0
   16.5850   16.4840    5.3860 C   0  0  0  0  0  0  0  0  0  0  0  0
   15.2780   16.2610    4.9550 C   0  0  0  0  0  0  0  0  0  0  0  0
   15.0200   15.2930    3.9920 C   0  0  0  0  0  0  0  0  0  0  0  0
   16.0660   14.5410    3.4570 C   0  0  0  0  0  0  0  0  0  0  0  0
   17.3820   14.7570    3.8780 C   0  0  0  0  0  0  0  0  0  0  0  0
   18.4630   14.0410    3.4340 O   0  0  0  0  0  0  0  0  0  0  0  0
   18.2820   12.6390    3.2370 C   0  0  0  0  0  0  0  0  0  0  0  0
   20.0290   16.2140    4.1780 N   0  0  0  0  0  4  0  0  0  0  0  0
   20.0340   17.6040    3.5810 C   0  0  2  0  0  0  0  0  0  0  0  0
   19.5990   17.4600    2.1230 C   0  0  0  0  0  0  0  0  0  0  0  0
   21.8280   18.4830    5.1650 C   0  0  0  0  0  0  0  0  0  0  0  0
   21.4360   18.2120    3.7190 C   0  0  0  0  0  0  0  0  0  0  0  0
   19.0159   16.8597    5.9718 H   0  0  0  0  0  0  0  0  0  0  0  0
   19.5342   15.0057    7.2123 H   0  0  0  0  0  0  0  0  0  0  0  0
   19.0726   13.8794    5.8913 H   0  0  0  0  0  0  0  0  0  0  0  0
   20.6970   14.6461    5.8913 H   0  0  0  0  0  0  0  0  0  0  0  0
   16.7815   17.2477    6.1530 H   0  0  0  0  0  0  0  0  0  0  0  0
   14.4513   16.8512    5.3771 H   0  0  0  0  0  0  0  0  0  0  0  0
   13.9888   15.1194    3.6509 H   0  0  0  0  0  0  0  0  0  0  0  0
   15.8543   13.7728    2.6987 H   0  0  0  0  0  0  0  0  0  0  0  0
   18.2172   12.1369    4.2136 H   0  0  0  0  0  0  0  0  0  0  0  0
   17.3539   12.4648    2.6728 H   0  0  0  0  0  0  0  0  0  0  0  0
   19.1354   12.2348    2.6728 H   0  0  0  0  0  0  0  0  0  0  0  0
   20.9823   16.0156    4.5138 H   0  0  0  0  0  0  0  0  0  0  0  0
   19.7008   15.5968    3.4215 H   0  0  0  0  0  0  0  0  0  0  0  0
   19.3430   18.2851    4.0993 H   0  0  0  0  0  0  0  0  0  0  0  0
   18.5554   17.1145    2.0841 H   0  0  0  0  0  0  0  0  0  0  0  0
   19.6820   18.4336    1.6177 H   0  0  0  0  0  0  0  0  0  0  0  0
   20.2465   16.7283    1.6177 H   0  0  0  0  0  0  0  0  0  0  0  0
   21.1122   17.9881    5.8379 H   0  0  0  0  0  0  0  0  0  0  0  0
   22.8383   18.0895    5.3509 H   0  0  0  0  0  0  0  0  0  0  0  0
   21.8168   19.5671    5.3509 H   0  0  0  0  0  0  0  0  0  0  0  0
   22.1654   17.5133    3.2833 H   0  0  0  0  0  0  0  0  0  0  0  0
   21.4283   19.1785    3.1938 H   0  0  0  0  0  0  0  0  0  0  0  0
  2  1  1  0
  3  1  1  0
  4  3  2  0
  5  4  1  0
  6  5  2  0
  7  6  1  0
  8  7  2  0
  8  3  1  0
  9  8  1  0
 10  9  1  0
 11  1  1  0
 12 11  1  0
 13 12  1  0
 15 12  1  0
 15 14  1  0
  1 16  1  1
  2 17  1  0
  2 18  1  0
  2 19  1  0
  4 20  1  0
  5 21  1  0
  6 22  1  0
  7 23  1  0
 10 24  1  0
 10 25  1  0
 10 26  1  0
 11 27  1  0
 11 28  1  0
 12 29  1  1
 13 30  1  0
 13 31  1  0
 13 32  1  0
 14 33  1  0
 14 34  1  0
 14 35  1  0
 15 36  1  0
 15 37  1  0
M  CHG  1  11   1
M  END
$$$$
=
     RDKit          3D

 40 41  0  0  0  0  0  0  0  0999 V2000
   17.7690   16.1900    5.5500 S   0  0  0  0  0  6  0  0  0  0  0  0
   17.2970   17.4670    6.0450 O   0  0  0  0  0  0  0  0  0  0  0  0
   18.5310   15.3350    6.4500 O   0  0  0  0  0  0  0  0  0  0  0  0
   14.2080   13.8670    3.8920 C   0  0  0  0  0  0  0  0  0  0  0  0
   14.0850   14.5990    5.0840 C   0  0  0  0  0  0  0  0  0  0  0  0
   15.1730   15.3110    5.5960 C   0  0  0  0  0  0  0  0  0  0  0  0
   16.3930   15.2780    4.9180 C   0  0  0  0  0  0  0  0  0  0  0  0
   16.5290   14.5670    3.7220 C   0  0  0  0  0  0  0  0  0  0  0  0
   15.4350   13.8580    3.2140 C   0  0  0  0  0  0  0  0  0  0  0  0
   13.0130   13.1300    3.3980 C   0  0  0  0  0  0  0  0  0  0  0  0
   13.0220   12.4490    2.3840 O   0  0  0  0  0  0  0  0  0  0  0  0
   10.7420   13.6550    3.5340 C   0  0  0  0  0  0  0  0  0  0  0  0
   11.9540   13.3290    4.2180 O   0  0  0  0  0  0  0  0  0  0  0  0
   18.7970   16.5170    4.1380 C   0  0  0  0  0  0  0  0  0  0  0  0
   19.5270   17.8810    4.1640 C   0  0  0  0  0  0  0  0  0  0  0  0
   20.5280   18.0560    2.9980 C   0  0  0  0  0  0  0  0  0  0  0  0
   21.9550   18.3680    3.4300 C   0  0  0  0  0  0  0  0  0  0  0  0
   22.2980   17.5090    4.5870 N   0  0  0  0  0  4  0  0  0  0  0  0
   21.5480   17.8230    5.8320 C   0  0  0  0  0  0  0  0  0  0  0  0
   20.1190   18.2820    5.5280 C   0  0  0  0  0  0  0  0  0  0  0  0
   13.1241   14.6121    5.6193 H   0  0  0  0  0  0  0  0  0  0  0  0
   15.0692   15.8919    6.5243 H   0  0  0  0  0  0  0  0  0  0  0  0
   17.4887   14.5650    3.1845 H   0  0  0  0  0  0  0  0  0  0  0  0
   15.5382   13.2904    2.2774 H   0  0  0  0  0  0  0  0  0  0  0  0
    9.9518   13.8675    4.2692 H   0  0  0  0  0  0  0  0  0  0  0  0
   10.9040   14.5415    2.9032 H   0  0  0  0  0  0  0  0  0  0  0  0
   10.4374   12.8069    2.9032 H   0  0  0  0  0  0  0  0  0  0  0  0
   19.5570   15.7240    4.0780 H   0  0  0  0  0  0  0  0  0  0  0  0
   18.1251   16.5439    3.2675 H   0  0  0  0  0  0  0  0  0  0  0  0
   18.7217   18.6118    3.9986 H   0  0  0  0  0  0  0  0  0  0  0  0
   20.5420   17.1235    2.4147 H   0  0  0  0  0  0  0  0  0  0  0  0
   20.1813   18.9229    2.4164 H   0  0  0  0  0  0  0  0  0  0  0  0
   22.6465   18.1639    2.5992 H   0  0  0  0  0  0  0  0  0  0  0  0
   22.0387   19.4280    3.7116 H   0  0  0  0  0  0  0  0  0  0  0  0
   22.1013   16.5309    4.3310 H   0  0  0  0  0  0  0  0  0  0  0  0
   23.2927   17.6791    4.7934 H   0  0  0  0  0  0  0  0  0  0  0  0
   21.5073   16.9217    6.4613 H   0  0  0  0  0  0  0  0  0  0  0  0
   22.0693   18.6409    6.3510 H   0  0  0  0  0  0  0  0  0  0  0  0
   20.1049   19.3804    5.5850 H   0  0  0  0  0  0  0  0  0  0  0  0
   19.4917   17.7688    6.2717 H   0  0  0  0  0  0  0  0  0  0  0  0
  2  1  2  0
  3  1  2  0
  5  4  2  0
  6  5  1  0
  7  6  2  0
  7  1  1  0
  8  7  1  0
  9  4  1  0
  9  8  2  0
 10  4  1  0
 11 10  2  0
 13 12  1  0
 13 10  1  0
 14  1  1  0
 15 14  1  0
 16 15  1  0
 17 16  1  0
 18 17  1  0
 19 18  1  0
 20 15  1  0
 20 19  1  0
  5 21  1  0
  6 22  1  0
  8 23  1  0
  9 24  1  0
 12 25  1  0
 12 26  1  0
 12 27  1  0
 14 28  1  0
 14 29  1  0
 15 30  1  0
 16 31  1  0
 16 32  1  0
 17 33  1  0
 17 34  1  0
 18 35  1  0
 18 36  1  0
 19 37  1  0
 19 38  1  0
 20 39  1  0
 20 40  1  0
M  CHG  1  18   1
M  END
$$$$
=
     RDKit          3D

 35 36  0  0  0  0  0  0  0  0999 V2000
   18.3110   15.2210    4.1830 N   0  0  0  0  0  0  0  0  0  0  0  0
   19.3850   14.6830    5.0230 C   0  0  2  0  0  0  0  0  0  0  0  0
   19.1970   14.9880    6.5000 C   0  0  0  0  0  0  0  0  0  0  0  0
   20.3550   15.5960    4.2120 C   0  0  1  0  0  0  0  0  0  0  0  0
   19.0820   16.0820    3.4790 C   0  0  0  0  0  0  0  0  0  0  0  0
   18.8890   16.9430    2.6530 O   0  0  0  0  0  0  0  0  0  0  0  0
   14.2170   14.2200    3.8700 C   0  0  0  0  0  0  0  0  0  0  0  0
   15.1980   13.4380    3.2480 C   0  0  0  0  0  0  0  0  0  0  0  0
   16.5530   13.7710    3.3500 C   0  0  0  0  0  0  0  0  0  0  0  0
   16.9590   14.8910    4.0810 C   0  0  0  0  0  0  0  0  0  0  0  0
   15.9820   15.6790    4.6950 C   0  0  0  0  0  0  0  0  0  0  0  0
   14.6270   15.3460    4.5930 C   0  0  0  0  0  0  0  0  0  0  0  0
   12.1050   13.6240    5.1120 C   0  0  0  0  0  0  0  0  0  0  0  0
   12.7520   13.8400    3.7420 C   0  0  0  0  0  0  0  0  0  0  0  0
   12.5640   12.6100    2.8490 C   0  0  0  0  0  0  0  0  0  0  0  0
   20.9910   16.7490    4.9080 N   0  0  0  0  0  4  0  0  0  0  0  0
   19.6030   13.6107    5.1358 H   0  0  0  0  0  0  0  0  0  0  0  0
   19.6805   14.2036    7.1008 H   0  0  0  0  0  0  0  0  0  0  0  0
   19.6518   15.9618    6.7341 H   0  0  0  0  0  0  0  0  0  0  0  0
   18.1227   15.0193    6.7341 H   0  0  0  0  0  0  0  0  0  0  0  0
   21.2535   15.1521    3.7586 H   0  0  0  0  0  0  0  0  0  0  0  0
   14.8993   12.5501    2.6715 H   0  0  0  0  0  0  0  0  0  0  0  0
   17.3066   13.1450    2.8498 H   0  0  0  0  0  0  0  0  0  0  0  0
   16.2815   16.5710    5.2648 H   0  0  0  0  0  0  0  0  0  0  0  0
   13.8741   15.9774    5.0875 H   0  0  0  0  0  0  0  0  0  0  0  0
   12.8306   13.8662    5.9025 H   0  0  0  0  0  0  0  0  0  0  0  0
   11.2253   14.2772    5.2091 H   0  0  0  0  0  0  0  0  0  0  0  0
   11.7941   12.5733    5.2091 H   0  0  0  0  0  0  0  0  0  0  0  0
   12.2413   14.6860    3.2588 H   0  0  0  0  0  0  0  0  0  0  0  0
   12.4276   11.7178    3.4778 H   0  0  0  0  0  0  0  0  0  0  0  0
   11.6768   12.7501    2.2139 H   0  0  0  0  0  0  0  0  0  0  0  0
   13.4525   12.4787    2.2139 H   0  0  0  0  0  0  0  0  0  0  0  0
   20.9184   16.6174    5.9270 H   0  0  0  0  0  0  0  0  0  0  0  0
   21.9836   16.8073    4.6392 H   0  0  0  0  0  0  0  0  0  0  0  0
   20.5108   17.6197    4.6392 H   0  0  0  0  0  0  0  0  0  0  0  0
  2  1  1  0
  3  2  1  0
  4  2  1  0
  5  4  1  0
  5  1  1  0
  6  5  2  0
  8  7  2  0
  9  8  1  0
 10  9  2  0
 10  1  1  0
 11 10  1  0
 12 11  2  0
 12  7  1  0
 14 13  1  0
 14  7  1  0
 15 14  1  0
 16  4  1  0
  2 17  1  1
  3 18  1  0
  3 19  1  0
  3 20  1  0
  4 21  1  6
  8 22  1  0
  9 23  1  0
 11 24  1  0
 12 25  1  0
 13 26  1  0
 13 27  1  0
 13 28  1  0
 14 29  1  0
 15 30  1  0
 15 31  1  0
 15 32  1  0
 16 33  1  0
 16 34  1  0
 16 35  1  0
M  CHG  1  16   1
M  END
$$$$
=
     RDKit          3D

 19 19  0  0  0  0  0  0  0  0999 V2000
   17.9360   14.2790    3.7020 C   0  0  0  0  0  0  0  0  0  0  0  0
   17.9760   13.0250    3.0920 C   0  0  0  0  0  0  0  0  0  0  0  0
   16.7720   12.3770    2.8140 C   0  0  0  0  0  0  0  0  0  0  0  0
   15.5380   12.9490    3.1680 C   0  0  0  0  0  0  0  0  0  0  0  0
   15.5130   14.2460    3.7180 C   0  0  0  0  0  0  0  0  0  0  0  0
   16.7260   14.8940    4.0010 C   0  0  0  0  0  0  0  0  0  0  0  0
   16.6990   16.1270    4.5290 F   0  0  0  0  0  0  0  0  0  0  0  0
   14.2160   14.9480    4.0140 C   0  0  0  0  0  0  0  0  0  0  0  0
   19.6620   14.7740    5.1310 O   0  0  0  0  0  1  0  0  0  0  0  0
   19.1770   14.9620    4.0050 N   0  0  0  0  0  4  0  0  0  0  0  0
   19.6470   15.7160    3.1430 O   0  0  0  0  0  0  0  0  0  0  0  0
   14.3620   12.3040    2.7580 N   0  0  0  0  0  0  0  0  0  0  0  0
   18.9375   12.5564    2.8353 H   0  0  0  0  0  0  0  0  0  0  0  0
   16.7889   11.4003    2.3083 H   0  0  0  0  0  0  0  0  0  0  0  0
   14.0793   15.0220    5.1030 H   0  0  0  0  0  0  0  0  0  0  0  0
   14.2376   15.9576    3.5777 H   0  0  0  0  0  0  0  0  0  0  0  0
   13.3826   14.3778    3.5777 H   0  0  0  0  0  0  0  0  0  0  0  0
   13.4441   12.7015    3.0037 H   0  0  0  0  0  0  0  0  0  0  0  0
   14.4163   11.4328    2.2112 H   0  0  0  0  0  0  0  0  0  0  0  0
  2  1  2  0
  3  2  1  0
  4  3  2  0
  5  4  1  0
  6  5  2  0
  6  1  1  0
  7  6  1  0
  8  5  1  0
 10  9  1  0
 10  1  1  0
 11 10  2  0
 12  4  1  0
  2 13  1  0
  3 14  1  0
  8 15  1  0
  8 16  1  0
  8 17  1  0
 12 18  1  0
 12 19  1  0
M  CHG  2   9  -1  10   1
M  END
$$$$
=
     RDKit          3D

 38 39  0  0  0  0  0  0  0  0999 V2000
   18.5430   15.3640    6.3610 O   0  0  0  0  0  0  0  0  0  0  0  0
   18.2450   16.4370    5.8340 C   0  0  0  0  0  0  0  0  0  0  0  0
   16.9770   16.7810    5.4510 N   0  0  0  0  0  0  0  0  0  0  0  0
   19.3340   17.4220    5.4230 C   0  0  0  0  0  0  0  0  0  0  0  0
   20.7220   16.8750    5.7990 C   0  0  0  0  0  0  0  0  0  0  0  0
   21.3460   15.9750    4.7330 C   0  0  0  0  0  0  0  0  0  0  0  0
   20.2840   15.3810    3.8840 N   0  0  0  0  0  4  0  0  0  0  0  0
   19.4930   16.3710    3.0980 C   0  0  0  0  0  0  0  0  0  0  0  0
   19.2370   17.6460    3.9110 C   0  0  0  0  0  0  0  0  0  0  0  0
   15.8280   15.9460    5.7670 C   0  0  0  0  0  0  0  0  0  0  0  0
   14.7840   15.9480    4.6470 C   0  0  0  0  0  0  0  0  0  0  0  0
   14.7450   14.6280    3.9240 C   0  0  0  0  0  0  0  0  0  0  0  0
   15.8690   14.1650    3.2260 C   0  0  0  0  0  0  0  0  0  0  0  0
   15.8380   12.9310    2.5750 C   0  0  0  0  0  0  0  0  0  0  0  0
   14.6860   12.1470    2.6190 C   0  0  0  0  0  0  0  0  0  0  0  0
   13.5640   12.5970    3.3130 C   0  0  0  0  0  0  0  0  0  0  0  0
   13.5930   13.8300    3.9650 C   0  0  0  0  0  0  0  0  0  0  0  0
   16.8321   17.6545    4.9249 H   0  0  0  0  0  0  0  0  0  0  0  0
   19.1949   18.3767    5.9513 H   0  0  0  0  0  0  0  0  0  0  0  0
   21.3954   17.7280    5.9687 H   0  0  0  0  0  0  0  0  0  0  0  0
   20.5869   16.2560    6.6982 H   0  0  0  0  0  0  0  0  0  0  0  0
   22.0238   16.5712    4.1044 H   0  0  0  0  0  0  0  0  0  0  0  0
   21.9073   15.1676    5.2261 H   0  0  0  0  0  0  0  0  0  0  0  0
   20.7284   14.7275    3.2235 H   0  0  0  0  0  0  0  0  0  0  0  0
   19.6219   14.9196    4.5240 H   0  0  0  0  0  0  0  0  0  0  0  0
   20.0498   16.6325    2.1861 H   0  0  0  0  0  0  0  0  0  0  0  0
   18.5229   15.9191    2.8435 H   0  0  0  0  0  0  0  0  0  0  0  0
   19.9811   18.4022    3.6204 H   0  0  0  0  0  0  0  0  0  0  0  0
   18.2102   17.9746    3.6926 H   0  0  0  0  0  0  0  0  0  0  0  0
   16.1737   14.9140    5.9268 H   0  0  0  0  0  0  0  0  0  0  0  0
   15.3530   16.3545    6.6712 H   0  0  0  0  0  0  0  0  0  0  0  0
   13.7935   16.1460    5.0825 H   0  0  0  0  0  0  0  0  0  0  0  0
   15.0577   16.7293    3.9227 H   0  0  0  0  0  0  0  0  0  0  0  0
   16.7814   14.7784    3.1912 H   0  0  0  0  0  0  0  0  0  0  0  0
   16.7233   12.5766    2.0267 H   0  0  0  0  0  0  0  0  0  0  0  0
   14.6625   11.1740    2.1064 H   0  0  0  0  0  0  0  0  0  0  0  0
   12.6546   11.9791    3.3466 H   0  0  0  0  0  0  0  0  0  0  0  0
   12.7062   14.1784    4.5148 H   0  0  0  0  0  0  0  0  0  0  0  0
  2  1  2  0
  3  2  1  0
  4  2  1  0
  5  4  1  0
  6  5  1  0
  7  6  1  0
  8  7  1  0
  9  8  1  0
  9  4  1  0
 10  3  1  0
 11 10  1  0
 12 11  1  0
 13 12  2  0
 14 13  1  0
 15 14  2  0
 16 15  1  0
 17 16  2  0
 17 12  1  0
  3 18  1  0
  4 19  1  0
  5 20  1  0
  5 21  1  0
  6 22  1  0
  6 23  1  0
  7 24  1  0
  7 25  1  0
  8 26  1  0
  8 27  1  0
  9 28  1  0
  9 29  1  0
 10 30  1  0
 10 31  1  0
 11 32  1  0
 11 33  1  0
 13 34  1  0
 14 35  1  0
 15 36  1  0
 16 37  1  0
 17 38  1  0
M  CHG  1   7   1
M  END
$$$$
=
     RDKit          3D

 32 32  0  0  0  0  0  0  0  0999 V2000
   15.4210   14.0460    3.9760 C   0  0  1  0  0  0  0  0  0  0  0  0
   14.0410   14.6930    4.2020 C   0  0  0  0  0  0  0  0  0  0  0  0
   12.8790   13.8170    3.7280 C   0  0  0  0  0  0  0  0  0  0  0  0
   13.2220   12.3420    3.7880 C   0  0  0  0  0  0  0  0  0  0  0  0
   14.3950   12.0550    2.9020 N   0  0  0  0  0  4  0  0  0  0  0  0
   15.4060   13.1530    2.7420 C   0  0  0  0  0  0  0  0  0  0  0  0
   16.5250   15.1060    3.8580 C   0  0  0  0  0  0  0  0  0  0  0  0
   17.7750   14.5220    3.5110 O   0  0  0  0  0  0  0  0  0  0  0  0
   18.8230   14.8080    4.4390 C   0  0  0  0  0  0  0  0  0  0  0  0
   19.5380   16.0910    4.0200 C   0  0  0  0  0  0  0  0  0  0  0  0
   19.5920   17.4710    2.0910 C   0  0  0  0  0  0  0  0  0  0  0  0
   19.6820   16.1480    2.6030 O   0  0  0  0  0  0  0  0  0  0  0  0
   15.6423   13.4233    4.8554 H   0  0  0  0  0  0  0  0  0  0  0  0
   13.9173   14.8856    5.2779 H   0  0  0  0  0  0  0  0  0  0  0  0
   14.0139   15.6199    3.6103 H   0  0  0  0  0  0  0  0  0  0  0  0
   12.0064   14.0056    4.3706 H   0  0  0  0  0  0  0  0  0  0  0  0
   12.6633   14.0744    2.6805 H   0  0  0  0  0  0  0  0  0  0  0  0
   13.4713   12.0673    4.8236 H   0  0  0  0  0  0  0  0  0  0  0  0
   12.3572   11.7548    3.4455 H   0  0  0  0  0  0  0  0  0  0  0  0
   14.8840   11.2348    3.2881 H   0  0  0  0  0  0  0  0  0  0  0  0
   13.9961   11.9165    1.9625 H   0  0  0  0  0  0  0  0  0  0  0  0
   16.4032   12.7099    2.6033 H   0  0  0  0  0  0  0  0  0  0  0  0
   15.1367   13.7606    1.8655 H   0  0  0  0  0  0  0  0  0  0  0  0
   16.2419   15.8317    3.0814 H   0  0  0  0  0  0  0  0  0  0  0  0
   16.6346   15.5997    4.8348 H   0  0  0  0  0  0  0  0  0  0  0  0
   18.3969   14.9374    5.4448 H   0  0  0  0  0  0  0  0  0  0  0  0
   19.5410   13.9747    4.4494 H   0  0  0  0  0  0  0  0  0  0  0  0
   18.9518   16.9581    4.3585 H   0  0  0  0  0  0  0  0  0  0  0  0
   20.5381   16.1041    4.4778 H   0  0  0  0  0  0  0  0  0  0  0  0
   19.5434   18.1850    2.9264 H   0  0  0  0  0  0  0  0  0  0  0  0
   20.4775   17.6869    1.4752 H   0  0  0  0  0  0  0  0  0  0  0  0
   18.6854   17.5650    1.4752 H   0  0  0  0  0  0  0  0  0  0  0  0
  2  1  1  0
  3  2  1  0
  4  3  1  0
  5  4  1  0
  6  5  1  0
  6  1  1  0
  7  1  1  0
  8  7  1  0
  9  8  1  0
 10  9  1  0
 12 10  1  0
 12 11  1  0
  1 13  1  1
  2 14  1  0
  2 15  1  0
  3 16  1  0
  3 17  1  0
  4 18  1  0
  4 19  1  0
  5 20  1  0
  5 21  1  0
  6 22  1  0
  6 23  1  0
  7 24  1  0
  7 25  1  0
  9 26  1  0
  9 27  1  0
 10 28  1  0
 10 29  1  0
 11 30  1  0
 11 31  1  0
 11 32  1  0
M  CHG  1   5   1
M  END
$$$$
=
     RDKit          3D

 43 44  0  0  0  0  0  0  0  0999 V2000
   19.0770   16.4320    4.9900 C   0  0  2  0  0  0  0  0  0  0  0  0
   18.9170   16.9460    3.5300 C   0  0  0  0  0  0  0  0  0  0  0  0
   19.7140   18.2230    3.2750 C   0  0  0  0  0  0  0  0  0  0  0  0
   21.2090   18.0330    3.5040 C   0  0  0  0  0  0  0  0  0  0  0  0
   21.4650   17.0730    4.6180 N   0  0  0  0  0  4  0  0  0  0  0  0
   20.3680   16.9730    5.6380 C   0  0  0  0  0  0  0  0  0  0  0  0
   19.1240   14.9050    4.8980 C   0  0  0  0  0  0  0  0  0  0  0  0
   19.3490   14.1600    5.8370 O   0  0  0  0  0  0  0  0  0  0  0  0
   18.7710   14.4850    3.6440 O   0  0  0  0  0  0  0  0  0  0  0  0
   16.9590   13.0080    3.0050 C   0  0  0  0  0  0  0  0  0  0  0  0
   18.3730   13.1010    3.5440 C   0  0  0  0  0  0  0  0  0  0  0  0
   17.8400   16.8620    5.8350 C   0  0  0  0  0  0  0  0  0  0  0  0
   16.5350   16.1870    5.4670 C   0  0  0  0  0  0  0  0  0  0  0  0
   15.9300   15.2840    6.3540 C   0  0  0  0  0  0  0  0  0  0  0  0
   14.7380   14.6400    6.0110 C   0  0  0  0  0  0  0  0  0  0  0  0
   14.1230   14.8870    4.7760 C   0  0  0  0  0  0  0  0  0  0  0  0
   14.7130   15.8110    3.9030 C   0  0  0  0  0  0  0  0  0  0  0  0
   15.9050   16.4550    4.2460 C   0  0  0  0  0  0  0  0  0  0  0  0
   12.8200   14.2090    4.4180 C   0  0  0  0  0  0  0  0  0  0  0  0
   12.4840   13.2300    5.2980 F   0  0  0  0  0  0  0  0  0  0  0  0
   12.8600   13.6210    3.1900 F   0  0  0  0  0  0  0  0  0  0  0  0
   11.7670   15.0720    4.3810 F   0  0  0  0  0  0  0  0  0  0  0  0
   19.2690   16.1654    2.8395 H   0  0  0  0  0  0  0  0  0  0  0  0
   17.8533   17.1751    3.3684 H   0  0  0  0  0  0  0  0  0  0  0  0
   19.5537   18.5368    2.2330 H   0  0  0  0  0  0  0  0  0  0  0  0
   19.3610   18.9850    3.9854 H   0  0  0  0  0  0  0  0  0  0  0  0
   21.6669   17.6442    2.5825 H   0  0  0  0  0  0  0  0  0  0  0  0
   21.6472   19.0053    3.7735 H   0  0  0  0  0  0  0  0  0  0  0  0
   21.6054   16.1386    4.2079 H   0  0  0  0  0  0  0  0  0  0  0  0
   22.2910   17.4296    5.1195 H   0  0  0  0  0  0  0  0  0  0  0  0
   20.6824   16.2918    6.4425 H   0  0  0  0  0  0  0  0  0  0  0  0
   20.1688   17.9748    6.0463 H   0  0  0  0  0  0  0  0  0  0  0  0
   16.2491   12.9613    3.8440 H   0  0  0  0  0  0  0  0  0  0  0  0
   16.7420   13.8938    2.3900 H   0  0  0  0  0  0  0  0  0  0  0  0
   16.8599   12.1014    2.3900 H   0  0  0  0  0  0  0  0  0  0  0  0
   18.4148   12.6366    4.5403 H   0  0  0  0  0  0  0  0  0  0  0  0
   19.0564   12.5763    2.8601 H   0  0  0  0  0  0  0  0  0  0  0  0
   18.0540   16.6346    6.8898 H   0  0  0  0  0  0  0  0  0  0  0  0
   17.6938   17.9336    5.6344 H   0  0  0  0  0  0  0  0  0  0  0  0
   16.3982   15.0810    7.3285 H   0  0  0  0  0  0  0  0  0  0  0  0
   14.2782   13.9327    6.7169 H   0  0  0  0  0  0  0  0  0  0  0  0
   14.2331   16.0316    2.9381 H   0  0  0  0  0  0  0  0  0  0  0  0
   16.3525   17.1795    3.5497 H   0  0  0  0  0  0  0  0  0  0  0  0
  2  1  1  0
  3  2  1  0
  4  3  1  0
  5  4  1  0
  6  5  1  0
  6  1  1  0
  1  7  1  6
  8  7  2  0
  9  7  1  0
 11 10  1  0
 11  9  1  0
 12  1  1  0
 13 12  1  0
 14 13  2  0
 15 14  1  0
 16 15  2  0
 17 16  1  0
 18 17  2  0
 18 13  1  0
 19 16  1  0
 20 19  1  0
 21 19  1  0
 22 19  1  0
  2 23  1  0
  2 24  1  0
  3 25  1  0
  3 26  1  0
  4 27  1  0
  4 28  1  0
  5 29  1  0
  5 30  1  0
  6 31  1  0
  6 32  1  0
 10 33  1  0
 10 34  1  0
 10 35  1  0
 11 36  1  0
 11 37  1  0
 12 38  1  0
 12 39  1  0
 14 40  1  0
 15 41  1  0
 17 42  1  0
 18 43  1  0
M  CHG  1   5   1
M  END
$$$$
=
     RDKit          3D

 30 30  0  0  0  0  0  0  0  0999 V2000
   19.8530   15.7820    3.9600 C   0  0  0  0  0  0  0  0  0  0  0  0
   20.4380   15.4880    5.1910 C   0  0  0  0  0  0  0  0  0  0  0  0
   21.1720   16.4680    5.8530 C   0  0  0  0  0  0  0  0  0  0  0  0
   21.7280   16.1820    7.0370 F   0  0  0  0  0  0  0  0  0  0  0  0
   21.3300   17.7390    5.3160 C   0  0  0  0  0  0  0  0  0  0  0  0
   20.7550   18.0360    4.0830 C   0  0  0  0  0  0  0  0  0  0  0  0
   20.0520   17.0520    3.3760 C   0  0  0  0  0  0  0  0  0  0  0  0
   19.3770   17.4050    2.1900 N   0  0  0  0  0  0  0  0  0  0  0  0
   19.1120   14.9050    3.2050 O   0  0  0  0  0  0  0  0  0  0  0  0
   17.9300   14.3420    3.7740 C   0  0  0  0  0  0  0  0  0  0  0  0
   16.7550   15.3190    3.7020 C   0  0  0  0  0  0  0  0  0  0  0  0
   15.9630   15.3700    5.0130 C   0  0  0  0  0  0  0  0  0  0  0  0
   17.2730   17.2970    5.9720 C   0  0  0  0  0  0  0  0  0  0  0  0
   16.8370   15.8530    6.1700 C   0  0  0  0  0  0  0  0  0  0  0  0
   20.3203   14.4888    5.6358 H   0  0  0  0  0  0  0  0  0  0  0  0
   21.9040   18.5039    5.8596 H   0  0  0  0  0  0  0  0  0  0  0  0
   20.8532   19.0476    3.6624 H   0  0  0  0  0  0  0  0  0  0  0  0
   19.5266   18.3331    1.7690 H   0  0  0  0  0  0  0  0  0  0  0  0
   18.7342   16.7349    1.7443 H   0  0  0  0  0  0  0  0  0  0  0  0
   17.6685   13.4267    3.2228 H   0  0  0  0  0  0  0  0  0  0  0  0
   18.1287   14.1174    4.8323 H   0  0  0  0  0  0  0  0  0  0  0  0
   17.1434   16.3247    3.4835 H   0  0  0  0  0  0  0  0  0  0  0  0
   16.0751   14.9715    2.9102 H   0  0  0  0  0  0  0  0  0  0  0  0
   15.1144   16.0595    4.8926 H   0  0  0  0  0  0  0  0  0  0  0  0
   15.6089   14.3547    5.2450 H   0  0  0  0  0  0  0  0  0  0  0  0
   17.4171   17.7742    6.9525 H   0  0  0  0  0  0  0  0  0  0  0  0
   18.2184   17.3208    5.4101 H   0  0  0  0  0  0  0  0  0  0  0  0
   16.4988   17.8400    5.4101 H   0  0  0  0  0  0  0  0  0  0  0  0
   16.2648   15.7772    7.1064 H   0  0  0  0  0  0  0  0  0  0  0  0
   17.7373   15.2223    6.2101 H   0  0  0  0  0  0  0  0  0  0  0  0
  2  1  2  0
  3  2  1  0
  4  3  1  0
  5  3  2  0
  6  5  1  0
  7  1  1  0
  7  6  2  0
  8  7  1  0
  9  1  1  0
 10  9  1  0
 11 10  1  0
 12 11  1  0
 14 12  1  0
 14 13  1  0
  2 15  1  0
  5 16  1  0
  6 17  1  0
  8 18  1  0
  8 19  1  0
 10 20  1  0
 10 21  1  0
 11 22  1  0
 11 23  1  0
 12 24  1  0
 12 25  1  0
 13 26  1  0
 13 27  1  0
 13 28  1  0
 14 29  1  0
 14 30  1  0
M  END
$$$$
=
     RDKit          3D

 49 53  0  0  0  0  0  0  0  0999 V2000
   17.5150   16.3040    5.5100 N   0  0  0  0  0  4  0  0  0  0  0  0
   18.5270   17.2620    4.9560 C   0  0  1  0  0  0  0  0  0  0  0  0
   19.6340   17.5890    5.9840 C   0  0  1  0  0  0  0  0  0  0  0  0
   20.4740   16.3400    6.3170 C   0  0  0  0  0  0  0  0  0  0  0  0
   21.1110   15.7720    5.0370 C   0  0  1  0  0  0  0  0  0  0  0  0
   20.0070   15.4080    4.0300 C   0  0  0  0  0  0  0  0  0  0  0  0
   19.1680   16.6560    3.6870 C   0  0  2  0  0  0  0  0  0  0  0  0
   20.1010   17.7170    3.0680 C   0  0  0  0  0  0  0  0  0  0  0  0
   21.2070   18.0970    4.0700 C   0  0  1  0  0  0  0  0  0  0  0  0
   20.5650   18.6480    5.3560 C   0  0  0  0  0  0  0  0  0  0  0  0
   22.0260   16.8410    4.4140 C   0  0  0  0  0  0  0  0  0  0  0  0
   16.0870   16.5980    5.1880 C   0  0  0  0  0  0  0  0  0  0  0  0
   15.6460   13.3300    3.2440 C   0  0  0  0  0  0  0  0  0  0  0  0
   16.2350   14.4200    3.8990 C   0  0  0  0  0  0  0  0  0  0  0  0
   15.4400   15.4050    4.5430 C   0  0  0  0  0  0  0  0  0  0  0  0
   14.0420   15.2930    4.5190 C   0  0  0  0  0  0  0  0  0  0  0  0
   13.4900   14.2130    3.8620 C   0  0  0  0  0  0  0  0  0  0  0  0
   14.2620   13.2630    3.2410 C   0  0  0  0  0  0  0  0  0  0  0  0
   13.5020   12.2970    2.6540 O   0  0  0  0  0  0  0  0  0  0  0  0
   12.1730   12.7320    2.9940 C   0  0  0  0  0  0  0  0  0  0  0  0
   12.1580   13.9680    3.7440 O   0  0  0  0  0  0  0  0  0  0  0  0
   17.6910   12.1700    2.8610 C   0  0  0  0  0  0  0  0  0  0  0  0
   16.3070   12.3380    2.5870 O   0  0  0  0  0  0  0  0  0  0  0  0
   17.7341   15.3672    5.1421 H   0  0  0  0  0  0  0  0  0  0  0  0
   17.5898   16.3842    6.5341 H   0  0  0  0  0  0  0  0  0  0  0  0
   18.0053   18.1992    4.7119 H   0  0  0  0  0  0  0  0  0  0  0  0
   19.1663   17.9525    6.9109 H   0  0  0  0  0  0  0  0  0  0  0  0
   21.2680   16.6147    7.0270 H   0  0  0  0  0  0  0  0  0  0  0  0
   19.8201   15.5757    6.7624 H   0  0  0  0  0  0  0  0  0  0  0  0
   21.6948   14.8731    5.2843 H   0  0  0  0  0  0  0  0  0  0  0  0
   20.4678   15.0159    3.1113 H   0  0  0  0  0  0  0  0  0  0  0  0
   19.3513   14.6454    4.4756 H   0  0  0  0  0  0  0  0  0  0  0  0
   18.3703   16.3617    2.9891 H   0  0  0  0  0  0  0  0  0  0  0  0
   20.5608   17.3095    2.1556 H   0  0  0  0  0  0  0  0  0  0  0  0
   19.5137   18.6140    2.8221 H   0  0  0  0  0  0  0  0  0  0  0  0
   21.8612   18.8623    3.6268 H   0  0  0  0  0  0  0  0  0  0  0  0
   21.3564   18.9078    6.0745 H   0  0  0  0  0  0  0  0  0  0  0  0
   19.9746   19.5422    5.1074 H   0  0  0  0  0  0  0  0  0  0  0  0
   22.8169   17.1066    5.1309 H   0  0  0  0  0  0  0  0  0  0  0  0
   22.4765   16.4399    3.4941 H   0  0  0  0  0  0  0  0  0  0  0  0
   15.5495   16.8447    6.1155 H   0  0  0  0  0  0  0  0  0  0  0  0
   16.0458   17.4474    4.4903 H   0  0  0  0  0  0  0  0  0  0  0  0
   17.3309   14.5142    3.9146 H   0  0  0  0  0  0  0  0  0  0  0  0
   13.4050   16.0438    5.0094 H   0  0  0  0  0  0  0  0  0  0  0  0
   11.6037   12.8791    2.0644 H   0  0  0  0  0  0  0  0  0  0  0  0
   11.7252   11.9550    3.6310 H   0  0  0  0  0  0  0  0  0  0  0  0
   17.8496   12.1507    3.9493 H   0  0  0  0  0  0  0  0  0  0  0  0
   18.0392   11.2230    2.4229 H   0  0  0  0  0  0  0  0  0  0  0  0
   18.2557   13.0062    2.4229 H   0  0  0  0  0  0  0  0  0  0  0  0
  2  1  1  0
  3  2  1  0
  4  3  1  0
  5  4  1  0
  6  5  1  0
  7  6  1  0
  7  2  1  0
  8  7  1  0
  9  8  1  0
 10  9  1  0
 10  3  1  0
 11  5  1  0
 11  9  1  0
 12  1  1  0
 14 13  2  0
 15 14  1  0
 15 12  1  0
 16 15  2  0
 17 16  1  0
 18 17  2  0
 18 13  1  0
 19 18  1  0
 20 19  1  0
 21 20  1  0
 21 17  1  0
 23 13  1  0
 23 22  1  0
  1 24  1  0
  1 25  1  0
  2 26  1  6
  3 27  1  1
  4 28  1  0
  4 29  1  0
  5 30  1  1
  6 31  1  0
  6 32  1  0
  7 33  1  6
  8 34  1  0
  8 35  1  0
  9 36  1  6
 10 37  1  0
 10 38  1  0
 11 39  1  0
 11 40  1  0
 12 41  1  0
 12 42  1  0
 14 43  1  0
 16 44  1  0
 20 45  1  0
 20 46  1  0
 22 47  1  0
 22 48  1  0
 22 49  1  0
M  CHG  1   1   1
M  END
$$$$
=
     RDKit          3D

 47 48  0  0  0  0  0  0  0  0999 V2000
   16.4240   15.1100    4.4100 C   0  0  0  0  0  0  0  0  0  0  0  0
   17.7180   15.8040    4.3810 N   0  0  0  0  0  0  0  0  0  0  0  0
   18.0460   16.7970    5.2680 C   0  0  0  0  0  0  0  0  0  0  0  0
   17.1960   17.3330    5.9770 O   0  0  0  0  0  0  0  0  0  0  0  0
   19.5140   17.2070    5.3430 C   0  0  0  0  0  0  0  0  0  0  0  0
   20.0310   17.8200    4.0400 C   0  0  0  0  0  0  0  0  0  0  0  0
   21.4470   18.3720    4.1970 C   0  0  0  0  0  0  0  0  0  0  0  0
   22.2440   17.5580    5.1680 N   0  0  0  0  0  4  0  0  0  0  0  0
   21.8390   16.1300    5.2810 C   0  0  0  0  0  0  0  0  0  0  0  0
   20.4090   16.0450    5.8080 C   0  0  0  0  0  0  0  0  0  0  0  0
   15.7820   14.7930    3.0380 C   0  0  0  0  0  0  0  0  0  0  0  0
   16.8410   12.5550    2.6590 C   0  0  0  0  0  0  0  0  0  0  0  0
   15.5530   13.3120    2.8050 N   0  0  1  0  0  4  0  0  0  0  0  0
   14.6510   12.6410    3.8190 C   0  0  0  0  0  0  0  0  0  0  0  0
   13.2080   13.0500    3.7290 C   0  0  0  0  0  0  0  0  0  0  0  0
   12.6880   14.0320    4.5860 C   0  0  0  0  0  0  0  0  0  0  0  0
   11.3510   14.4180    4.4880 C   0  0  0  0  0  0  0  0  0  0  0  0
   10.5200   13.8280    3.5380 C   0  0  0  0  0  0  0  0  0  0  0  0
   11.0230   12.8470    2.6870 C   0  0  0  0  0  0  0  0  0  0  0  0
   12.3590   12.4580    2.7800 C   0  0  0  0  0  0  0  0  0  0  0  0
   16.5672   14.1571    4.9406 H   0  0  0  0  0  0  0  0  0  0  0  0
   15.7300   15.8065    4.9033 H   0  0  0  0  0  0  0  0  0  0  0  0
   18.4074   15.5338    3.6651 H   0  0  0  0  0  0  0  0  0  0  0  0
   19.5679   17.9994    6.1041 H   0  0  0  0  0  0  0  0  0  0  0  0
   20.0350   17.0455    3.2589 H   0  0  0  0  0  0  0  0  0  0  0  0
   19.3670   18.6531    3.7663 H   0  0  0  0  0  0  0  0  0  0  0  0
   21.9488   18.3546    3.2183 H   0  0  0  0  0  0  0  0  0  0  0  0
   21.3779   19.4005    4.5810 H   0  0  0  0  0  0  0  0  0  0  0  0
   23.2306   17.5870    4.8736 H   0  0  0  0  0  0  0  0  0  0  0  0
   22.0785   17.9761    6.0947 H   0  0  0  0  0  0  0  0  0  0  0  0
   21.8933   15.6543    4.2907 H   0  0  0  0  0  0  0  0  0  0  0  0
   22.5163   15.6114    5.9755 H   0  0  0  0  0  0  0  0  0  0  0  0
   20.4422   16.0494    6.9075 H   0  0  0  0  0  0  0  0  0  0  0  0
   19.9710   15.1187    5.4078 H   0  0  0  0  0  0  0  0  0  0  0  0
   14.8121   15.3087    2.9800 H   0  0  0  0  0  0  0  0  0  0  0  0
   16.4845   15.1374    2.2647 H   0  0  0  0  0  0  0  0  0  0  0  0
   17.2426   12.3190    3.6555 H   0  0  0  0  0  0  0  0  0  0  0  0
   16.6570   11.6213    2.1072 H   0  0  0  0  0  0  0  0  0  0  0  0
   17.5672   13.1700    2.1072 H   0  0  0  0  0  0  0  0  0  0  0  0
   15.0439   13.2763    1.9103 H   0  0  0  0  0  0  0  0  0  0  0  0
   14.7109   11.5532    3.6669 H   0  0  0  0  0  0  0  0  0  0  0  0
   15.0058   12.9539    4.8121 H   0  0  0  0  0  0  0  0  0  0  0  0
   13.3384   14.5002    5.3395 H   0  0  0  0  0  0  0  0  0  0  0  0
   10.9519   15.1900    5.1624 H   0  0  0  0  0  0  0  0  0  0  0  0
    9.4671   14.1369    3.4602 H   0  0  0  0  0  0  0  0  0  0  0  0
   10.3654   12.3782    1.9402 H   0  0  0  0  0  0  0  0  0  0  0  0
   12.7504   11.6822    2.1054 H   0  0  0  0  0  0  0  0  0  0  0  0
  2  1  1  0
  3  2  1  0
  4  3  2  0
  5  3  1  0
  6  5  1  0
  7  6  1  0
  8  7  1  0
  9  8  1  0
 10  5  1  0
 10  9  1  0
 11  1  1  0
 13 11  1  0
 13 12  1  0
 14 13  1  0
 15 14  1  0
 16 15  2  0
 17 16  1  0
 18 17  2  0
 19 18  1  0
 20 19  2  0
 20 15  1  0
  1 21  1  0
  1 22  1  0
  2 23  1  0
  5 24  1  0
  6 25  1  0
  6 26  1  0
  7 27  1  0
  7 28  1  0
  8 29  1  0
  8 30  1  0
  9 31  1  0
  9 32  1  0
 10 33  1  0
 10 34  1  0
 11 35  1  0
 11 36  1  0
 12 37  1  0
 12 38  1  0
 12 39  1  0
 13 40  1  6
 14 41  1  0
 14 42  1  0
 16 43  1  0
 17 44  1  0
 18 45  1  0
 19 46  1  0
 20 47  1  0
M  CHG  2   8   1  13   1
M  END
$$$$
=
     RDKit          3D

 48 49  0  0  0  0  0  0  0  0999 V2000
   16.9500   14.9350    4.1640 C   0  0  0  0  0  0  0  0  0  0  0  0
   16.9370   15.6150    5.3790 C   0  0  0  0  0  0  0  0  0  0  0  0
   18.0670   15.6030    6.2050 C   0  0  0  0  0  0  0  0  0  0  0  0
   19.2260   14.9100    5.8260 C   0  0  0  0  0  0  0  0  0  0  0  0
   19.2300   14.2250    4.6030 C   0  0  0  0  0  0  0  0  0  0  0  0
   18.1010   14.2420    3.7830 C   0  0  0  0  0  0  0  0  0  0  0  0
   15.9260   14.8700    3.2640 O   0  0  0  0  0  0  0  0  0  0  0  0
   15.6460   13.6020    2.6730 C   0  0  0  0  0  0  0  0  0  0  0  0
   14.5900   12.8820    3.5150 C   0  0  0  0  0  0  0  0  0  0  0  0
   12.6660   13.9440    4.7360 C   0  0  0  0  0  0  0  0  0  0  0  0
   13.1620   13.4450    3.3750 C   0  0  0  0  0  0  0  0  0  0  0  0
   12.1810   12.4140    2.8140 C   0  0  0  0  0  0  0  0  0  0  0  0
   20.4520   14.9270    6.6930 C   0  0  0  0  0  0  0  0  0  0  0  0
   21.6730   15.3850    5.9590 N   0  0  0  0  0  4  0  0  0  0  0  0
   22.0560   16.8120    6.2070 C   0  0  0  0  0  0  0  0  0  0  0  0
   21.4620   17.7480    5.1510 C   0  0  2  0  0  0  0  0  0  0  0  0
   20.1150   18.3490    5.5130 C   0  0  0  0  0  0  0  0  0  0  0  0
   19.5500   18.6640    4.1470 C   0  0  0  0  0  0  0  0  0  0  0  0
   20.0330   17.4900    3.3210 C   0  0  0  0  0  0  0  0  0  0  0  0
   21.2440   17.0160    3.9370 O   0  0  0  0  0  0  0  0  0  0  0  0
   16.0358   16.1634    5.6907 H   0  0  0  0  0  0  0  0  0  0  0  0
   18.0458   16.1435    7.1628 H   0  0  0  0  0  0  0  0  0  0  0  0
   20.1271   13.6716    4.2883 H   0  0  0  0  0  0  0  0  0  0  0  0
   18.1179   13.7027    2.8244 H   0  0  0  0  0  0  0  0  0  0  0  0
   15.2664   13.7473    1.6508 H   0  0  0  0  0  0  0  0  0  0  0  0
   16.5651   12.9989    2.6345 H   0  0  0  0  0  0  0  0  0  0  0  0
   14.5728   11.8246    3.2123 H   0  0  0  0  0  0  0  0  0  0  0  0
   14.8794   13.0261    4.5664 H   0  0  0  0  0  0  0  0  0  0  0  0
   13.1968   13.4100    5.5380 H   0  0  0  0  0  0  0  0  0  0  0  0
   12.8596   15.0233    4.8236 H   0  0  0  0  0  0  0  0  0  0  0  0
   11.5856   13.7570    4.8236 H   0  0  0  0  0  0  0  0  0  0  0  0
   13.2071   14.2790    2.6592 H   0  0  0  0  0  0  0  0  0  0  0  0
   11.6837   11.8913    3.6444 H   0  0  0  0  0  0  0  0  0  0  0  0
   11.4263   12.9238    2.1971 H   0  0  0  0  0  0  0  0  0  0  0  0
   12.7276   11.6855    2.1971 H   0  0  0  0  0  0  0  0  0  0  0  0
   20.2748   15.6067    7.5395 H   0  0  0  0  0  0  0  0  0  0  0  0
   20.6345   13.8959    7.0300 H   0  0  0  0  0  0  0  0  0  0  0  0
   22.4617   14.7872    6.2444 H   0  0  0  0  0  0  0  0  0  0  0  0
   21.4521   15.3140    4.9555 H   0  0  0  0  0  0  0  0  0  0  0  0
   21.6872   17.1132    7.1986 H   0  0  0  0  0  0  0  0  0  0  0  0
   23.1522   16.8874    6.1553 H   0  0  0  0  0  0  0  0  0  0  0  0
   22.1938   18.5642    5.0592 H   0  0  0  0  0  0  0  0  0  0  0  0
   19.4844   17.6268    6.0521 H   0  0  0  0  0  0  0  0  0  0  0  0
   20.1770   19.2181    6.1845 H   0  0  0  0  0  0  0  0  0  0  0  0
   18.4512   18.7093    4.1709 H   0  0  0  0  0  0  0  0  0  0  0  0
   19.8674   19.6407    3.7530 H   0  0  0  0  0  0  0  0  0  0  0  0
   19.2743   16.6935    3.3158 H   0  0  0  0  0  0  0  0  0  0  0  0
   20.2128   17.7897    2.2780 H   0  0  0  0  0  0  0  0  0  0  0  0
  2  1  2  0
  3  2  1  0
  4  3  2  0
  5  4  1  0
  6  5  2  0
  6  1  1  0
  7  1  1  0
  8  7  1  0
  9  8  1  0
 11 10  1  0
 11  9  1  0
 12 11  1  0
 13  4  1  0
 14 13  1  0
 15 14  1  0
 16 15  1  0
 17 16  1  0
 18 17  1  0
 19 18  1  0
 20 19  1  0
 20 16  1  0
  2 21  1  0
  3 22  1  0
  5 23  1  0
  6 24  1  0
  8 25  1  0
  8 26  1  0
  9 27  1  0
  9 28  1  0
 10 29  1  0
 10 30  1  0
 10 31  1  0
 11 32  1  0
 12 33  1  0
 12 34  1  0
 12 35  1  0
 13 36  1  0
 13 37  1  0
 14 38  1  0
 14 39  1  0
 15 40  1  0
 15 41  1  0
 16 42  1  6
 17 43  1  0
 17 44  1  0
 18 45  1  0
 18 46  1  0
 19 47  1  0
 19 48  1  0
M  CHG  1  14   1
M  END
$$$$
=
     RDKit          3D

 38 40  0  0  0  0  0  0  0  0999 V2000
   19.4420   15.8680    3.5660 C   0  0  0  0  0  0  0  0  0  0  0  0
   19.3640   16.8260    2.5760 N   0  0  0  0  0  0  0  0  0  0  0  0
   20.2750   17.7310    2.8480 C   0  0  0  0  0  0  0  0  0  0  0  0
   20.9490   17.4050    3.9810 N   0  0  0  0  0  0  0  0  0  0  0  0
   20.4480   16.2150    4.4620 C   0  0  0  0  0  0  0  0  0  0  0  0
   20.9680   15.6060    5.7110 C   0  0  0  0  0  0  0  0  0  0  0  0
   22.2780   16.2010    6.1060 N   0  0  0  0  0  4  0  0  0  0  0  0
   22.3010   17.7040    6.0110 C   0  0  0  0  0  0  0  0  0  0  0  0
   22.0480   18.1470    4.5710 C   0  0  0  0  0  0  0  0  0  0  0  0
   18.5040   14.6880    3.5460 C   0  0  0  0  0  0  0  0  0  0  0  0
   14.3120   15.3500    4.0640 C   0  0  0  0  0  0  0  0  0  0  0  0
   15.2600   16.1230    4.9850 C   0  0  0  0  0  0  0  0  0  0  0  0
   16.6540   15.5060    5.0730 C   0  0  0  0  0  0  0  0  0  0  0  0
   17.0210   14.9470    3.7210 N   0  0  0  0  0  4  0  0  0  0  0  0
   16.1550   13.7640    3.3390 C   0  0  0  0  0  0  0  0  0  0  0  0
   14.7440   13.8990    3.9070 C   0  0  0  0  0  0  0  0  0  0  0  0
   20.4660   18.6290    2.2422 H   0  0  0  0  0  0  0  0  0  0  0  0
   20.2412   15.7733    6.5196 H   0  0  0  0  0  0  0  0  0  0  0  0
   21.1170   14.5306    5.5342 H   0  0  0  0  0  0  0  0  0  0  0  0
   22.4794   15.9316    7.0795 H   0  0  0  0  0  0  0  0  0  0  0  0
   22.9867   15.8424    5.4502 H   0  0  0  0  0  0  0  0  0  0  0  0
   21.5185   18.1210    6.6620 H   0  0  0  0  0  0  0  0  0  0  0  0
   23.2889   18.0681    6.3296 H   0  0  0  0  0  0  0  0  0  0  0  0
   22.9577   17.9745    3.9771 H   0  0  0  0  0  0  0  0  0  0  0  0
   21.7856   19.2152    4.5753 H   0  0  0  0  0  0  0  0  0  0  0  0
   18.6347   14.1843    2.5769 H   0  0  0  0  0  0  0  0  0  0  0  0
   18.7844   14.1028    4.4342 H   0  0  0  0  0  0  0  0  0  0  0  0
   13.2986   15.3767    4.4910 H   0  0  0  0  0  0  0  0  0  0  0  0
   14.3325   15.8247    3.0719 H   0  0  0  0  0  0  0  0  0  0  0  0
   15.3564   17.1503    4.6038 H   0  0  0  0  0  0  0  0  0  0  0  0
   14.8270   16.0946    5.9958 H   0  0  0  0  0  0  0  0  0  0  0  0
   17.3823   16.2769    5.3651 H   0  0  0  0  0  0  0  0  0  0  0  0
   16.6622   14.7036    5.8254 H   0  0  0  0  0  0  0  0  0  0  0  0
   16.8110   15.6928    3.0424 H   0  0  0  0  0  0  0  0  0  0  0  0
   16.0949   13.7039    2.2423 H   0  0  0  0  0  0  0  0  0  0  0  0
   16.6100   12.8534    3.7558 H   0  0  0  0  0  0  0  0  0  0  0  0
   14.0412   13.3938    3.2281 H   0  0  0  0  0  0  0  0  0  0  0  0
   14.7425   13.4411    4.9072 H   0  0  0  0  0  0  0  0  0  0  0  0
  2  1  1  0
  3  2  2  0
  4  3  1  0
  5  1  2  0
  5  4  1  0
  6  5  1  0
  7  6  1  0
  8  7  1  0
  9  4  1  0
  9  8  1  0
 10  1  1  0
 12 11  1  0
 13 12  1  0
 14 13  1  0
 14 10  1  0
 15 14  1  0
 16 15  1  0
 16 11  1  0
  3 17  1  0
  6 18  1  0
  6 19  1  0
  7 20  1  0
  7 21  1  0
  8 22  1  0
  8 23  1  0
  9 24  1  0
  9 25  1  0
 10 26  1  0
 10 27  1  0
 11 28  1  0
 11 29  1  0
 12 30  1  0
 12 31  1  0
 13 32  1  0
 13 33  1  0
 14 34  1  0
 15 35  1  0
 15 36  1  0
 16 37  1  0
 16 38  1  0
M  CHG  2   7   1  14   1
M  END
$$$$
=
     RDKit          3D

 43 43  0  0  0  0  0  0  0  0999 V2000
   16.5940   15.4810    7.1080 C   0  0  0  0  0  0  0  0  0  0  0  0
   17.6360   15.9940    6.1220 C   0  0  2  0  0  0  0  0  0  0  0  0
   17.0000   16.2210    4.7780 N   0  0  0  0  0  4  0  0  0  0  0  0
   17.1000   15.1530    3.7370 C   0  0  0  0  0  0  0  0  0  0  0  0
   15.7810   14.4470    3.5960 C   0  0  0  0  0  0  0  0  0  0  0  0
   15.7060   13.2060    2.9430 C   0  0  0  0  0  0  0  0  0  0  0  0
   14.4880   12.5290    2.8560 C   0  0  0  0  0  0  0  0  0  0  0  0
   13.3410   13.0780    3.4250 C   0  0  0  0  0  0  0  0  0  0  0  0
   13.4060   14.3060    4.0800 C   0  0  0  0  0  0  0  0  0  0  0  0
   14.6200   14.9880    4.1690 C   0  0  0  0  0  0  0  0  0  0  0  0
   18.8600   15.0840    5.9740 C   0  0  0  0  0  0  0  0  0  0  0  0
   20.2140   15.8020    6.0350 C   0  0  0  0  0  0  0  0  0  0  0  0
   20.7380   16.2430    4.6600 C   0  0  0  0  0  0  0  0  0  0  0  0
   20.5410   17.7440    4.3610 C   0  0  0  0  0  0  0  0  0  0  0  0
   21.7320   18.3550    3.6210 C   0  0  0  0  0  0  0  0  0  0  0  0
   20.2840   18.5020    5.6660 C   0  0  0  0  0  0  0  0  0  0  0  0
   19.3800   17.8670    3.5390 O   0  0  0  0  0  0  0  0  0  0  0  0
   16.9454   15.6540    8.1359 H   0  0  0  0  0  0  0  0  0  0  0  0
   15.6454   16.0151    6.9500 H   0  0  0  0  0  0  0  0  0  0  0  0
   16.4388   14.4035    6.9500 H   0  0  0  0  0  0  0  0  0  0  0  0
   18.0101   16.9409    6.5385 H   0  0  0  0  0  0  0  0  0  0  0  0
   15.9971   16.3877    4.9434 H   0  0  0  0  0  0  0  0  0  0  0  0
   17.5384   17.0037    4.3800 H   0  0  0  0  0  0  0  0  0  0  0  0
   17.3744   15.6079    2.7738 H   0  0  0  0  0  0  0  0  0  0  0  0
   17.8682   14.4257    4.0387 H   0  0  0  0  0  0  0  0  0  0  0  0
   16.6105   12.7655    2.4982 H   0  0  0  0  0  0  0  0  0  0  0  0
   14.4340   11.5605    2.3373 H   0  0  0  0  0  0  0  0  0  0  0  0
   12.3831   12.5415    3.3571 H   0  0  0  0  0  0  0  0  0  0  0  0
   12.4990   14.7384    4.5276 H   0  0  0  0  0  0  0  0  0  0  0  0
   14.6672   15.9550    4.6912 H   0  0  0  0  0  0  0  0  0  0  0  0
   18.8317   14.3400    6.7837 H   0  0  0  0  0  0  0  0  0  0  0  0
   18.7929   14.6402    4.9698 H   0  0  0  0  0  0  0  0  0  0  0  0
   20.1062   16.6945    6.6688 H   0  0  0  0  0  0  0  0  0  0  0  0
   20.9416   15.0849    6.4430 H   0  0  0  0  0  0  0  0  0  0  0  0
   21.8141   16.0200    4.6129 H   0  0  0  0  0  0  0  0  0  0  0  0
   20.1557   15.6912    3.9074 H   0  0  0  0  0  0  0  0  0  0  0  0
   22.4640   18.7305    4.3512 H   0  0  0  0  0  0  0  0  0  0  0  0
   22.2043   17.5878    2.9898 H   0  0  0  0  0  0  0  0  0  0  0  0
   21.3843   19.1861    2.9898 H   0  0  0  0  0  0  0  0  0  0  0  0
   20.5063   17.8463    6.5208 H   0  0  0  0  0  0  0  0  0  0  0  0
   20.9311   19.3906    5.7075 H   0  0  0  0  0  0  0  0  0  0  0  0
   19.2299   18.8138    5.7075 H   0  0  0  0  0  0  0  0  0  0  0  0
   18.5773   17.9520    4.1122 H   0  0  0  0  0  0  0  0  0  0  0  0
  2  1  1  0
  3  2  1  0
  4  3  1  0
  5  4  1  0
  6  5  2  0
  7  6  1  0
  8  7  2  0
  9  8  1  0
 10  9  2  0
 10  5  1  0
 11  2  1  0
 12 11  1  0
 13 12  1  0
 14 13  1  0
 15 14  1  0
 16 14  1  0
 17 14  1  0
  1 18  1  0
  1 19  1  0
  1 20  1  0
  2 21  1  1
  3 22  1  0
  3 23  1  0
  4 24  1  0
  4 25  1  0
  6 26  1  0
  7 27  1  0
  8 28  1  0
  9 29  1  0
 10 30  1  0
 11 31  1  0
 11 32  1  0
 12 33  1  0
 12 34  1  0
 13 35  1  0
 13 36  1  0
 15 37  1  0
 15 38  1  0
 15 39  1  0
 16 40  1  0
 16 41  1  0
 16 42  1  0
 17 43  1  0
M  CHG  1   3   1
M  END
$$$$
=
     RDKit          3D

 30 31  0  0  0  0  0  0  0  0999 V2000
   16.1930   16.8260    5.2980 O   0  0  0  0  0  0  0  0  0  0  0  0
   17.2710   16.3170    5.0630 C   0  0  0  0  0  0  0  0  0  0  0  0
   17.5380   15.3800    4.1240 N   0  0  0  0  0  0  0  0  0  0  0  0
   18.8640   15.0910    4.1030 C   0  0  0  0  0  0  0  0  0  0  0  0
   19.4470   14.4490    3.2450 O   0  0  0  0  0  0  0  0  0  0  0  0
   19.5300   15.7480    5.3280 C   0  0  1  0  0  0  0  0  0  0  0  0
   18.4500   16.6430    5.7040 N   0  0  0  0  0  0  0  0  0  0  0  0
   19.7130   14.6880    6.4190 C   0  0  0  0  0  0  0  0  0  0  0  0
   20.8210   16.5320    4.9730 C   0  0  1  0  0  0  0  0  0  0  0  0
   20.5750   17.9650    4.4660 C   0  0  0  0  0  0  0  0  0  0  0  0
   21.8700   18.6500    4.0120 C   0  0  0  0  0  0  0  0  0  0  0  0
   23.1140   18.1680    4.7410 C   0  0  0  0  0  0  0  0  0  0  0  0
   22.7320   17.7210    6.1050 N   0  0  0  0  0  4  0  0  0  0  0  0
   21.8390   16.5200    6.1350 C   0  0  0  0  0  0  0  0  0  0  0  0
   16.8332   14.9465    3.5106 H   0  0  0  0  0  0  0  0  0  0  0  0
   18.5509   17.4247    6.3671 H   0  0  0  0  0  0  0  0  0  0  0  0
   19.6312   15.1621    7.4082 H   0  0  0  0  0  0  0  0  0  0  0  0
   18.9346   13.9177    6.3160 H   0  0  0  0  0  0  0  0  0  0  0  0
   20.7047   14.2232    6.3160 H   0  0  0  0  0  0  0  0  0  0  0  0
   21.2556   15.9868    4.1222 H   0  0  0  0  0  0  0  0  0  0  0  0
   19.8786   17.9250    3.6155 H   0  0  0  0  0  0  0  0  0  0  0  0
   20.1576   18.5504    5.2985 H   0  0  0  0  0  0  0  0  0  0  0  0
   22.0035   18.4591    2.9370 H   0  0  0  0  0  0  0  0  0  0  0  0
   21.7612   19.7201    4.2424 H   0  0  0  0  0  0  0  0  0  0  0  0
   23.5625   17.3284    4.1898 H   0  0  0  0  0  0  0  0  0  0  0  0
   23.8456   18.9866    4.8093 H   0  0  0  0  0  0  0  0  0  0  0  0
   23.5932   17.4951    6.6229 H   0  0  0  0  0  0  0  0  0  0  0  0
   22.1993   18.4939    6.5291 H   0  0  0  0  0  0  0  0  0  0  0  0
   21.2906   16.5079    7.0885 H   0  0  0  0  0  0  0  0  0  0  0  0
   22.4680   15.6238    6.0289 H   0  0  0  0  0  0  0  0  0  0  0  0
  2  1  2  0
  3  2  1  0
  4  3  1  0
  5  4  2  0
  6  4  1  0
  7  6  1  0
  7  2  1  0
  6  8  1  1
  9  6  1  0
 10  9  1  0
 11 10  1  0
 12 11  1  0
 13 12  1  0
 14  9  1  0
 14 13  1  0
  3 15  1  0
  7 16  1  0
  8 17  1  0
  8 18  1  0
  8 19  1  0
  9 20  1  6
 10 21  1  0
 10 22  1  0
 11 23  1  0
 11 24  1  0
 12 25  1  0
 12 26  1  0
 13 27  1  0
 13 28  1  0
 14 29  1  0
 14 30  1  0
M  CHG  1  13   1
M  END
$$$$
=
     RDKit          3D

 33 34  0  0  0  0  0  0  0  0999 V2000
   20.6740   17.7680    4.5770 C   0  0  0  0  0  0  0  0  0  0  0  0
   20.8150   16.6010    5.2830 N   0  0  0  0  0  0  0  0  0  0  0  0
   19.6350   16.2680    5.7750 N   0  0  0  0  0  0  0  0  0  0  0  0
   18.7530   17.2200    5.4050 N   0  0  0  0  0  0  0  0  0  0  0  0
   19.3660   18.1870    4.6560 C   0  0  0  0  0  0  0  0  0  0  0  0
   21.8450   18.3590    3.8840 C   0  0  0  0  0  0  0  0  0  0  0  0
   23.1630   18.0490    4.6020 C   0  0  0  0  0  0  0  0  0  0  0  0
   23.0810   18.3800    6.0540 N   0  0  0  0  0  4  0  0  0  0  0  0
   17.3600   17.1480    5.8120 C   0  0  0  0  0  0  0  0  0  0  0  0
   16.6450   16.0230    5.1050 C   0  0  0  0  0  0  0  0  0  0  0  0
   15.3850   15.5940    5.5480 C   0  0  0  0  0  0  0  0  0  0  0  0
   14.7280   14.5410    4.9060 C   0  0  0  0  0  0  0  0  0  0  0  0
   15.3140   13.9010    3.8040 C   0  0  0  0  0  0  0  0  0  0  0  0
   16.5760   14.3260    3.3670 C   0  0  0  0  0  0  0  0  0  0  0  0
   17.2350   15.3790    4.0080 C   0  0  0  0  0  0  0  0  0  0  0  0
   14.6150   12.7440    3.1280 C   0  0  0  0  0  0  0  0  0  0  0  0
   15.2970   12.3100    2.0330 F   0  0  0  0  0  0  0  0  0  0  0  0
   13.3640   13.0560    2.6940 F   0  0  0  0  0  0  0  0  0  0  0  0
   14.4740   11.6600    3.9380 F   0  0  0  0  0  0  0  0  0  0  0  0
   18.9168   19.0906    4.2182 H   0  0  0  0  0  0  0  0  0  0  0  0
   21.8942   17.9524    2.8631 H   0  0  0  0  0  0  0  0  0  0  0  0
   21.7151   19.4513    3.8755 H   0  0  0  0  0  0  0  0  0  0  0  0
   23.3881   16.9780    4.4910 H   0  0  0  0  0  0  0  0  0  0  0  0
   23.9565   18.6627    4.1507 H   0  0  0  0  0  0  0  0  0  0  0  0
   23.2895   17.5386    6.6103 H   0  0  0  0  0  0  0  0  0  0  0  0
   23.7648   19.1172    6.2772 H   0  0  0  0  0  0  0  0  0  0  0  0
   22.1321   18.7128    6.2772 H   0  0  0  0  0  0  0  0  0  0  0  0
   17.3113   16.9785    6.8978 H   0  0  0  0  0  0  0  0  0  0  0  0
   16.8689   18.0957    5.5462 H   0  0  0  0  0  0  0  0  0  0  0  0
   14.9105   16.0903    6.4074 H   0  0  0  0  0  0  0  0  0  0  0  0
   13.7430   14.2112    5.2679 H   0  0  0  0  0  0  0  0  0  0  0  0
   17.0527   13.8259    2.5110 H   0  0  0  0  0  0  0  0  0  0  0  0
   18.2227   15.7045    3.6496 H   0  0  0  0  0  0  0  0  0  0  0  0
  2  1  1  0
  3  2  2  0
  4  3  1  0
  5  4  1  0
  5  1  2  0
  6  1  1  0
  7  6  1  0
  8  7  1  0
  9  4  1  0
 10  9  1  0
 11 10  2  0
 12 11  1  0
 13 12  2  0
 14 13  1  0
 15 14  2  0
 15 10  1  0
 16 13  1  0
 17 16  1  0
 18 16  1  0
 19 16  1  0
  5 20  1  0
  6 21  1  0
  6 22  1  0
  7 23  1  0
  7 24  1  0
  8 25  1  0
  8 26  1  0
  8 27  1  0
  9 28  1  0
  9 29  1  0
 11 30  1  0
 12 31  1  0
 14 32  1  0
 15 33  1  0
M  CHG  1   8   1
M  END
$$$$
=
     RDKit          3D

 32 31  0  0  0  0  0  0  0  0999 V2000
   19.7260   15.7510    3.5180 N   0  0  0  0  0  4  0  0  0  0  0  0
   18.7580   14.9350    4.3420 C   0  0  0  0  0  0  0  0  0  0  0  0
   18.5120   13.5900    3.6470 C   0  0  0  0  0  0  0  0  0  0  0  0
   19.3460   14.7260    5.7450 C   0  0  0  0  0  0  0  0  0  0  0  0
   17.4460   15.7520    4.4730 C   0  0  0  0  0  0  0  0  0  0  0  0
   17.0370   16.1430    5.8890 C   0  0  0  0  0  0  0  0  0  0  0  0
   19.4480   17.2420    3.2610 C   0  0  2  0  0  0  0  0  0  0  0  0
   19.7930   17.5470    1.8110 C   0  0  0  0  0  0  0  0  0  0  0  0
   20.2990   18.0720    4.2240 C   0  0  0  0  0  0  0  0  0  0  0  0
   19.8280   18.4700    5.2860 O   0  0  0  0  0  0  0  0  0  0  0  0
   22.5430   18.4710    4.7550 C   0  0  0  0  0  0  0  0  0  0  0  0
   21.5390   18.3100    3.7460 O   0  0  0  0  0  0  0  0  0  0  0  0
   20.6395   15.6957    3.9906 H   0  0  0  0  0  0  0  0  0  0  0  0
   19.6528   15.3307    2.5805 H   0  0  0  0  0  0  0  0  0  0  0  0
   18.3686   12.8062    4.4054 H   0  0  0  0  0  0  0  0  0  0  0  0
   17.6120   13.6612    3.0186 H   0  0  0  0  0  0  0  0  0  0  0  0
   19.3790   13.3380    3.0186 H   0  0  0  0  0  0  0  0  0  0  0  0
   18.5935   14.9935    6.5015 H   0  0  0  0  0  0  0  0  0  0  0  0
   19.6320   13.6711    5.8693 H   0  0  0  0  0  0  0  0  0  0  0  0
   20.2336   15.3637    5.8693 H   0  0  0  0  0  0  0  0  0  0  0  0
   17.5669   16.6773    3.8906 H   0  0  0  0  0  0  0  0  0  0  0  0
   16.6478   15.0892    4.1076 H   0  0  0  0  0  0  0  0  0  0  0  0
   17.6348   15.5715    6.6143 H   0  0  0  0  0  0  0  0  0  0  0  0
   17.2112   17.2190    6.0371 H   0  0  0  0  0  0  0  0  0  0  0  0
   15.9700   15.9206    6.0371 H   0  0  0  0  0  0  0  0  0  0  0  0
   18.3903   17.4903    3.4328 H   0  0  0  0  0  0  0  0  0  0  0  0
   20.6167   18.2752    1.7754 H   0  0  0  0  0  0  0  0  0  0  0  0
   20.1008   16.6203    1.3046 H   0  0  0  0  0  0  0  0  0  0  0  0
   18.9110   17.9661    1.3046 H   0  0  0  0  0  0  0  0  0  0  0  0
   22.0787   18.3965    5.7494 H   0  0  0  0  0  0  0  0  0  0  0  0
   23.3028   17.6832    4.6452 H   0  0  0  0  0  0  0  0  0  0  0  0
   23.0184   19.4569    4.6452 H   0  0  0  0  0  0  0  0  0  0  0  0
  2  1  1  0
  3  2  1  0
  4  2  1  0
  5  2  1  0
  6  5  1  0
  7  1  1  0
  8  7  1  0
  9  7  1  0
 10  9  2  0
 12  9  1  0
 12 11  1  0
  1 13  1  0
  1 14  1  0
  3 15  1  0
  3 16  1  0
  3 17  1  0
  4 18  1  0
  4 19  1  0
  4 20  1  0
  5 21  1  0
  5 22  1  0
  6 23  1  0
  6 24  1  0
  6 25  1  0
  7 26  1  6
  8 27  1  0
  8 28  1  0
  8 29  1  0
 11 30  1  0
 11 31  1  0
 11 32  1  0
M  CHG  1   1   1
M  END
$$$$
=
     RDKit          3D

 29 30  0  0  0  0  0  0  0  0999 V2000
   17.6800   16.2550    4.4690 C   0  0  2  0  0  0  0  0  0  0  0  0
   16.5720   16.7080    5.4420 C   0  0  0  0  0  0  0  0  0  0  0  0
   15.7480   15.5330    5.9610 C   0  0  0  0  0  0  0  0  0  0  0  0
   15.0780   14.7390    4.8440 C   0  0  0  0  0  0  0  0  0  0  0  0
   15.8200   14.8800    3.5520 N   0  0  0  0  0  4  0  0  0  0  0  0
   17.3070   14.9590    3.7210 C   0  0  0  0  0  0  0  0  0  0  0  0
   19.8110   18.4240    4.6080 C   0  0  0  0  0  0  0  0  0  0  0  0
   19.9700   17.0870    5.2660 C   0  0  0  0  0  0  0  0  0  0  0  0
   21.1270   16.9000    5.9490 N   0  0  0  0  0  0  0  0  0  0  0  0
   21.2840   15.7130    6.5710 C   0  0  0  0  0  0  0  0  0  0  0  0
   20.3220   14.7290    6.5160 C   0  0  0  0  0  0  0  0  0  0  0  0
   19.1640   14.8880    5.8310 N   0  0  0  0  0  0  0  0  0  0  0  0
   18.9980   16.0780    5.1940 C   0  0  0  0  0  0  0  0  0  0  0  0
   17.7881   17.0522    3.7188 H   0  0  0  0  0  0  0  0  0  0  0  0
   17.0382   17.2194    6.2971 H   0  0  0  0  0  0  0  0  0  0  0  0
   15.8952   17.3809    4.8950 H   0  0  0  0  0  0  0  0  0  0  0  0
   16.4123   14.8587    6.5213 H   0  0  0  0  0  0  0  0  0  0  0  0
   14.9509   15.9443    6.5978 H   0  0  0  0  0  0  0  0  0  0  0  0
   15.0510   13.6764    5.1270 H   0  0  0  0  0  0  0  0  0  0  0  0
   14.0602   15.1317    4.7030 H   0  0  0  0  0  0  0  0  0  0  0  0
   15.6021   14.0654    2.9605 H   0  0  0  0  0  0  0  0  0  0  0  0
   15.5166   15.7664    3.1241 H   0  0  0  0  0  0  0  0  0  0  0  0
   17.6554   14.0905    4.2993 H   0  0  0  0  0  0  0  0  0  0  0  0
   17.7853   14.9610    2.7305 H   0  0  0  0  0  0  0  0  0  0  0  0
   19.7183   19.2033    5.3788 H   0  0  0  0  0  0  0  0  0  0  0  0
   20.6908   18.6311    3.9811 H   0  0  0  0  0  0  0  0  0  0  0  0
   18.9071   18.4190    3.9811 H   0  0  0  0  0  0  0  0  0  0  0  0
   22.2074   15.5257    7.1387 H   0  0  0  0  0  0  0  0  0  0  0  0
   20.4999   13.7818    7.0463 H   0  0  0  0  0  0  0  0  0  0  0  0
  2  1  1  0
  3  2  1  0
  4  3  1  0
  5  4  1  0
  6  5  1  0
  6  1  1  0
  8  7  1  0
  9  8  2  0
 10  9  1  0
 11 10  2  0
 12 11  1  0
 13  1  1  0
 13 12  2  0
 13  8  1  0
  1 14  1  6
  2 15  1  0
  2 16  1  0
  3 17  1  0
  3 18  1  0
  4 19  1  0
  4 20  1  0
  5 21  1  0
  5 22  1  0
  6 23  1  0
  6 24  1  0
  7 25  1  0
  7 26  1  0
  7 27  1  0
 10 28  1  0
 11 29  1  0
M  CHG  1   5   1
M  END
$$$$
=
     RDKit          3D

 24 24  0  0  0  0  0  0  0  0999 V2000
   16.7890   15.8600    6.3910 C   0  0  0  0  0  0  0  0  0  0  0  0
   17.2050   16.4170    5.0260 C   0  0  1  0  0  0  0  0  0  0  0  0
   18.4720   17.2750    5.1240 C   0  0  0  0  0  0  0  0  0  0  0  0
   19.6630   16.4000    5.3820 N   0  0  0  0  0  4  0  0  0  0  0  0
   19.8690   15.3020    4.3790 C   0  0  0  0  0  0  0  0  0  0  0  0
   18.5990   14.4190    4.2240 C   0  0  1  0  0  0  0  0  0  0  0  0
   17.3640   15.2940    3.9800 C   0  0  0  0  0  0  0  0  0  0  0  0
   18.7170   13.4380    3.0970 N   0  0  0  0  0  4  0  0  0  0  0  0
   17.2424   16.4671    7.1884 H   0  0  0  0  0  0  0  0  0  0  0  0
   15.6933   15.8939    6.4824 H   0  0  0  0  0  0  0  0  0  0  0  0
   17.1325   14.8190    6.4824 H   0  0  0  0  0  0  0  0  0  0  0  0
   16.3921   17.0743    4.6836 H   0  0  0  0  0  0  0  0  0  0  0  0
   18.6175   17.8197    4.1795 H   0  0  0  0  0  0  0  0  0  0  0  0
   18.3618   17.9900    5.9527 H   0  0  0  0  0  0  0  0  0  0  0  0
   20.5035   16.9953    5.3820 H   0  0  0  0  0  0  0  0  0  0  0  0
   19.4915   15.9373    6.2861 H   0  0  0  0  0  0  0  0  0  0  0  0
   20.1125   15.7504    3.4045 H   0  0  0  0  0  0  0  0  0  0  0  0
   20.6901   14.6622    4.7348 H   0  0  0  0  0  0  0  0  0  0  0  0
   18.4945   13.8578    5.1643 H   0  0  0  0  0  0  0  0  0  0  0  0
   17.4504   15.7524    2.9838 H   0  0  0  0  0  0  0  0  0  0  0  0
   16.4798   14.6443    4.0576 H   0  0  0  0  0  0  0  0  0  0  0  0
   18.8312   12.4883    3.4790 H   0  0  0  0  0  0  0  0  0  0  0  0
   17.8655   13.4753    2.5187 H   0  0  0  0  0  0  0  0  0  0  0  0
   19.5354   13.6762    2.5187 H   0  0  0  0  0  0  0  0  0  0  0  0
  2  1  1  0
  3  2  1  0
  4  3  1  0
  5  4  1  0
  6  5  1  0
  7  6  1  0
  7  2  1  0
  8  6  1  0
  1  9  1  0
  1 10  1  0
  1 11  1  0
  2 12  1  6
  3 13  1  0
  3 14  1  0
  4 15  1  0
  4 16  1  0
  5 17  1  0
  5 18  1  0
  6 19  1  1
  7 20  1  0
  7 21  1  0
  8 22  1  0
  8 23  1  0
  8 24  1  0
M  CHG  2   4   1   8   1
M  END
$$$$
=
     RDKit          3D

 42 43  0  0  0  0  0  0  0  0999 V2000
   19.2870   16.9970    4.2610 C   0  0  0  0  0  0  0  0  0  0  0  0
   19.6170   18.0200    5.4030 C   0  0  0  0  0  0  0  0  0  0  0  0
   21.1160   18.2280    5.6050 C   0  0  0  0  0  0  0  0  0  0  0  0
   21.7880   16.9410    6.0800 C   0  0  0  0  0  0  0  0  0  0  0  0
   21.0770   15.6840    5.5790 C   0  0  0  0  0  0  0  0  0  0  0  0
   20.4330   15.9230    4.2150 C   0  0  0  0  0  0  0  0  0  0  0  0
   16.1960   14.6950    3.7680 C   0  0  0  0  0  0  0  0  0  0  0  0
   17.4240   15.3470    3.5670 C   0  0  0  0  0  0  0  0  0  0  0  0
   17.8890   16.3530    4.4310 C   0  0  0  0  0  0  0  0  0  0  0  0
   17.0690   16.6640    5.5290 C   0  0  0  0  0  0  0  0  0  0  0  0
   15.8440   16.0140    5.7400 C   0  0  0  0  0  0  0  0  0  0  0  0
   15.3960   15.0190    4.8700 C   0  0  0  0  0  0  0  0  0  0  0  0
   16.8670   12.6240    2.8320 C   0  0  0  0  0  0  0  0  0  0  0  0
   15.9490   13.7140    2.8400 O   0  0  0  0  0  0  0  0  0  0  0  0
   14.2540   14.2950    5.0650 O   0  0  0  0  0  0  0  0  0  0  0  0
   13.0870   14.6870    4.3500 C   0  0  0  0  0  0  0  0  0  0  0  0
   19.2900   17.7230    2.8740 C   0  0  0  0  0  0  0  0  0  0  0  0
   20.0860   16.9990    1.8400 N   0  0  0  0  0  4  0  0  0  0  0  0
   19.1602   18.9879    5.1489 H   0  0  0  0  0  0  0  0  0  0  0  0
   19.2136   17.6078    6.3397 H   0  0  0  0  0  0  0  0  0  0  0  0
   21.5678   18.5390    4.6515 H   0  0  0  0  0  0  0  0  0  0  0  0
   21.2621   19.0033    6.3715 H   0  0  0  0  0  0  0  0  0  0  0  0
   22.8247   16.9290    5.7123 H   0  0  0  0  0  0  0  0  0  0  0  0
   21.7458   16.9305    7.1791 H   0  0  0  0  0  0  0  0  0  0  0  0
   21.8091   14.8676    5.4925 H   0  0  0  0  0  0  0  0  0  0  0  0
   20.2865   15.4202    6.2970 H   0  0  0  0  0  0  0  0  0  0  0  0
   21.2091   16.2673    3.5157 H   0  0  0  0  0  0  0  0  0  0  0  0
   19.9830   14.9730    3.8908 H   0  0  0  0  0  0  0  0  0  0  0  0
   18.0427   15.0603    2.7038 H   0  0  0  0  0  0  0  0  0  0  0  0
   17.3959   17.4364    6.2407 H   0  0  0  0  0  0  0  0  0  0  0  0
   15.2259   16.2933    6.6060 H   0  0  0  0  0  0  0  0  0  0  0  0
   17.1069   12.3391    3.8670 H   0  0  0  0  0  0  0  0  0  0  0  0
   16.4144   11.7672    2.3114 H   0  0  0  0  0  0  0  0  0  0  0  0
   17.7883   12.9243    2.3114 H   0  0  0  0  0  0  0  0  0  0  0  0
   12.2927   14.9538    5.0627 H   0  0  0  0  0  0  0  0  0  0  0  0
   13.3193   15.5564    3.7174 H   0  0  0  0  0  0  0  0  0  0  0  0
   12.7473   13.8536    3.7174 H   0  0  0  0  0  0  0  0  0  0  0  0
   18.2518   17.8089    2.5208 H   0  0  0  0  0  0  0  0  0  0  0  0
   19.7567   18.7085    3.0189 H   0  0  0  0  0  0  0  0  0  0  0  0
   20.7669   16.3797    2.3023 H   0  0  0  0  0  0  0  0  0  0  0  0
   19.4544   16.4367    1.2520 H   0  0  0  0  0  0  0  0  0  0  0  0
   20.5861   17.6809    1.2520 H   0  0  0  0  0  0  0  0  0  0  0  0
  2  1  1  0
  3  2  1  0
  4  3  1  0
  5  4  1  0
  6  5  1  0
  6  1  1  0
  8  7  2  0
  9  8  1  0
  9  1  1  0
 10  9  2  0
 11 10  1  0
 12  7  1  0
 12 11  2  0
 14  7  1  0
 14 13  1  0
 15 12  1  0
 16 15  1  0
 17  1  1  0
 18 17  1  0
  2 19  1  0
  2 20  1  0
  3 21  1  0
  3 22  1  0
  4 23  1  0
  4 24  1  0
  5 25  1  0
  5 26  1  0
  6 27  1  0
  6 28  1  0
  8 29  1  0
 10 30  1  0
 11 31  1  0
 13 32  1  0
 13 33  1  0
 13 34  1  0
 16 35  1  0
 16 36  1  0
 16 37  1  0
 17 38  1  0
 17 39  1  0
 18 40  1  0
 18 41  1  0
 18 42  1  0
M  CHG  1  18   1
M  END
$$$$
=
     RDKit          3D

 15 14  0  0  0  0  0  0  0  0999 V2000
   20.7910   16.0360    4.6950 C   0  0  1  0  0  0  0  0  0  0  0  0
   19.2130   14.2760    3.2960 O   0  0  0  0  0  0  0  0  0  0  0  0
   18.8230   14.6160    4.4070 C   0  0  0  0  0  0  0  0  0  0  0  0
   19.6230   15.3610    5.2350 N   0  0  0  0  0  0  0  0  0  0  0  0
   20.5780   17.5580    4.3200 C   0  0  0  0  0  0  0  0  0  0  0  0
   22.1620   18.3930    4.2890 Cl  0  0  0  0  0  0  0  0  0  0  0  0
   19.5150   18.3380    5.5150 Cl  0  0  0  0  0  0  0  0  0  0  0  0
   19.8500   17.6590    2.6900 Cl  0  0  0  0  0  0  0  0  0  0  0  0
   21.8750   15.8460    5.7040 N   0  0  0  0  0  4  0  0  0  0  0  0
   21.0461   15.5912    3.7218 H   0  0  0  0  0  0  0  0  0  0  0  0
   17.8187   14.3199    4.7442 H   0  0  0  0  0  0  0  0  0  0  0  0
   19.3966   15.4418    6.2366 H   0  0  0  0  0  0  0  0  0  0  0  0
   21.4779   15.9156    6.6518 H   0  0  0  0  0  0  0  0  0  0  0  0
   22.3023   14.9173    5.5781 H   0  0  0  0  0  0  0  0  0  0  0  0
   22.5927   16.5740    5.5781 H   0  0  0  0  0  0  0  0  0  0  0  0
  3  2  2  0
  4  3  1  0
  4  1  1  0
  5  1  1  0
  6  5  1  0
  7  5  1  0
  8  5  1  0
  9  1  1  0
  1 10  1  6
  3 11  1  0
  4 12  1  0
  9 13  1  0
  9 14  1  0
  9 15  1  0
M  CHG  1   9   1
M  END
$$$$
=
     RDKit          3D

 48 51  0  0  0  0  0  0  0  0999 V2000
   15.9910   14.8360    4.0880 N   0  0  0  0  0  4  0  0  0  0  0  0
   14.7900   14.7460    4.9680 C   0  0  0  0  0  0  0  0  0  0  0  0
    9.2730   14.2740    5.5410 C   0  0  0  0  0  0  0  0  0  0  0  0
    9.9210   13.5490    4.4870 N   0  0  0  0  0  0  0  0  0  0  0  0
    9.2630   12.7220    3.5480 C   0  0  0  0  0  0  0  0  0  0  0  0
    8.0690   12.4780    3.4980 O   0  0  0  0  0  0  0  0  0  0  0  0
   10.2700   12.2380    2.6840 N   0  0  0  0  0  0  0  0  0  0  0  0
   11.5040   12.7630    3.0790 C   0  0  0  0  0  0  0  0  0  0  0  0
   11.2890   13.5740    4.1940 C   0  0  0  0  0  0  0  0  0  0  0  0
   12.3220   14.2400    4.8230 C   0  0  0  0  0  0  0  0  0  0  0  0
   13.6200   14.0740    4.3020 C   0  0  0  0  0  0  0  0  0  0  0  0
   13.8250   13.2500    3.1640 C   0  0  0  0  0  0  0  0  0  0  0  0
   12.7600   12.5860    2.5420 C   0  0  0  0  0  0  0  0  0  0  0  0
   10.0510   11.3700    1.5610 C   0  0  0  0  0  0  0  0  0  0  0  0
   17.2080   15.5190    4.6420 C   0  0  0  0  0  0  0  0  0  0  0  0
   18.5010   14.7390    4.3680 C   0  0  0  0  0  0  0  0  0  0  0  0
   19.6700   15.2380    5.1590 C   0  0  0  0  0  0  0  0  0  0  0  0
   20.1400   14.7030    6.3430 C   0  0  0  0  0  0  0  0  0  0  0  0
   21.2160   15.4440    6.7570 N   0  0  0  0  0  0  0  0  0  0  0  0
   21.4380   16.4800    5.8810 C   0  0  0  0  0  0  0  0  0  0  0  0
   20.5080   16.3580    4.8470 C   0  0  0  0  0  0  0  0  0  0  0  0
   20.5640   17.2840    3.7830 C   0  0  0  0  0  0  0  0  0  0  0  0
   21.5250   18.3020    3.8060 C   0  0  0  0  0  0  0  0  0  0  0  0
   22.4260   18.4050    4.8610 C   0  0  0  0  0  0  0  0  0  0  0  0
   22.4040   17.4910    5.9160 C   0  0  0  0  0  0  0  0  0  0  0  0
   16.2636   13.8744    3.8391 H   0  0  0  0  0  0  0  0  0  0  0  0
   15.6942   15.4286    3.2995 H   0  0  0  0  0  0  0  0  0  0  0  0
   15.0574   14.1727    5.8679 H   0  0  0  0  0  0  0  0  0  0  0  0
   14.4833   15.7741    5.2110 H   0  0  0  0  0  0  0  0  0  0  0  0
    9.6153   13.8910    6.5137 H   0  0  0  0  0  0  0  0  0  0  0  0
    9.5230   15.3421    5.4589 H   0  0  0  0  0  0  0  0  0  0  0  0
    8.1837   14.1450    5.4589 H   0  0  0  0  0  0  0  0  0  0  0  0
   12.1378   14.8778    5.7001 H   0  0  0  0  0  0  0  0  0  0  0  0
   14.8420   13.1305    2.7622 H   0  0  0  0  0  0  0  0  0  0  0  0
   12.9203   11.9486    1.6599 H   0  0  0  0  0  0  0  0  0  0  0  0
    9.7967   10.3621    1.9207 H   0  0  0  0  0  0  0  0  0  0  0  0
    9.2234   11.7613    0.9511 H   0  0  0  0  0  0  0  0  0  0  0  0
   10.9651   11.3218    0.9511 H   0  0  0  0  0  0  0  0  0  0  0  0
   17.2932   16.5144    4.1816 H   0  0  0  0  0  0  0  0  0  0  0  0
   17.0844   15.5848    5.7331 H   0  0  0  0  0  0  0  0  0  0  0  0
   18.3323   13.6822    4.6224 H   0  0  0  0  0  0  0  0  0  0  0  0
   18.7449   14.8742    3.3039 H   0  0  0  0  0  0  0  0  0  0  0  0
   19.7214   13.8300    6.8651 H   0  0  0  0  0  0  0  0  0  0  0  0
   21.7758   15.2529    7.6002 H   0  0  0  0  0  0  0  0  0  0  0  0
   19.8584   17.2064    2.9427 H   0  0  0  0  0  0  0  0  0  0  0  0
   21.5681   19.0282    2.9809 H   0  0  0  0  0  0  0  0  0  0  0  0
   23.1665   19.2184    4.8639 H   0  0  0  0  0  0  0  0  0  0  0  0
   23.1218   17.5634    6.7464 H   0  0  0  0  0  0  0  0  0  0  0  0
  2  1  1  0
  4  3  1  0
  5  4  1  0
  6  5  2  0
  7  5  1  0
  8  7  1  0
  9  4  1  0
  9  8  2  0
 10  9  1  0
 11 10  2  0
 11  2  1  0
 12 11  1  0
 13 12  2  0
 13  8  1  0
 14  7  1  0
 15  1  1  0
 16 15  1  0
 17 16  1  0
 18 17  2  0
 19 18  1  0
 20 19  1  0
 21 17  1  0
 21 20  2  0
 22 21  1  0
 23 22  2  0
 24 23  1  0
 25 20  1  0
 25 24  2  0
  1 26  1  0
  1 27  1  0
  2 28  1  0
  2 29  1  0
  3 30  1  0
  3 31  1  0
  3 32  1  0
 10 33  1  0
 12 34  1  0
 13 35  1  0
 14 36  1  0
 14 37  1  0
 14 38  1  0
 15 39  1  0
 15 40  1  0
 16 41  1  0
 16 42  1  0
 18 43  1  0
 19 44  1  0
 22 45  1  0
 23 46  1  0
 24 47  1  0
 25 48  1  0
M  CHG  1   1   1
M  END
$$$$
=
     RDKit          3D

 40 41  0  0  0  0  0  0  0  0999 V2000
   20.3350   14.7560    6.4960 C   0  0  0  0  0  0  0  0  0  0  0  0
   20.4230   15.6660    5.2790 C   0  0  2  0  0  0  0  0  0  0  0  0
   20.6160   17.1630    5.6620 C   0  0  0  0  0  0  0  0  0  0  0  0
   20.6860   18.0330    4.4260 N   0  0  0  0  0  4  0  0  0  0  0  0
   19.5400   17.8490    3.4580 C   0  0  0  0  0  0  0  0  0  0  0  0
   19.3460   16.3570    3.0900 C   0  0  0  0  0  0  0  0  0  0  0  0
   19.2060   15.4810    4.3460 N   0  0  2  0  0  4  0  0  0  0  0  0
   17.8170   15.5970    4.9920 C   0  0  0  0  0  0  0  0  0  0  0  0
   16.7020   15.3740    3.9570 C   0  0  0  0  0  0  0  0  0  0  0  0
   15.3150   15.8310    4.4620 C   0  0  0  0  0  0  0  0  0  0  0  0
   14.4800   14.6750    5.0030 C   0  0  0  0  0  0  0  0  0  0  0  0
   14.2270   13.6090    3.9370 C   0  0  0  0  0  0  0  0  0  0  0  0
   15.3650   13.4790    2.9250 C   0  0  0  0  0  0  0  0  0  0  0  0
   16.7010   13.8920    3.5300 C   0  0  0  0  0  0  0  0  0  0  0  0
   20.3936   15.3621    7.4121 H   0  0  0  0  0  0  0  0  0  0  0  0
   19.3799   14.2106    6.4777 H   0  0  0  0  0  0  0  0  0  0  0  0
   21.1679   14.0377    6.4777 H   0  0  0  0  0  0  0  0  0  0  0  0
   21.3247   15.3615    4.7275 H   0  0  0  0  0  0  0  0  0  0  0  0
   19.7683   17.4878    6.2832 H   0  0  0  0  0  0  0  0  0  0  0  0
   21.5606   17.2644    6.2166 H   0  0  0  0  0  0  0  0  0  0  0  0
   20.6965   19.0179    4.7272 H   0  0  0  0  0  0  0  0  0  0  0  0
   21.5399   17.7540    3.9221 H   0  0  0  0  0  0  0  0  0  0  0  0
   18.6163   18.2266    3.9208 H   0  0  0  0  0  0  0  0  0  0  0  0
   19.7710   18.4056    2.5378 H   0  0  0  0  0  0  0  0  0  0  0  0
   18.4367   16.2546    2.4795 H   0  0  0  0  0  0  0  0  0  0  0  0
   20.2321   16.0210    2.5316 H   0  0  0  0  0  0  0  0  0  0  0  0
   19.2387   14.4875    4.0762 H   0  0  0  0  0  0  0  0  0  0  0  0
   17.7262   14.8409    5.7858 H   0  0  0  0  0  0  0  0  0  0  0  0
   17.7094   16.6100    5.4071 H   0  0  0  0  0  0  0  0  0  0  0  0
   16.9119   16.0045    3.0804 H   0  0  0  0  0  0  0  0  0  0  0  0
   15.4577   16.5691    5.2650 H   0  0  0  0  0  0  0  0  0  0  0  0
   14.7738   16.2626    3.6071 H   0  0  0  0  0  0  0  0  0  0  0  0
   15.0143   14.2145    5.8471 H   0  0  0  0  0  0  0  0  0  0  0  0
   13.5070   15.0765    5.3223 H   0  0  0  0  0  0  0  0  0  0  0  0
   14.0943   12.6391    4.4387 H   0  0  0  0  0  0  0  0  0  0  0  0
   13.3300   13.9151    3.3787 H   0  0  0  0  0  0  0  0  0  0  0  0
   15.4310   12.4320    2.5941 H   0  0  0  0  0  0  0  0  0  0  0  0
   15.1499   14.1454    2.0767 H   0  0  0  0  0  0  0  0  0  0  0  0
   16.9007   13.2669    4.4128 H   0  0  0  0  0  0  0  0  0  0  0  0
   17.4797   13.7558    2.7651 H   0  0  0  0  0  0  0  0  0  0  0  0
  2  1  1  0
  3  2  1  0
  4  3  1  0
  5  4  1  0
  6  5  1  0
  7  2  1  0
  7  6  1  0
  8  7  1  0
  9  8  1  0
 10  9  1  0
 11 10  1  0
 12 11  1  0
 13 12  1  0
 14 13  1  0
 14  9  1  0
  1 15  1  0
  1 16  1  0
  1 17  1  0
  2 18  1  6
  3 19  1  0
  3 20  1  0
  4 21  1  0
  4 22  1  0
  5 23  1  0
  5 24  1  0
  6 25  1  0
  6 26  1  0
  7 27  1  6
  8 28  1  0
  8 29  1  0
  9 30  1  0
 10 31  1  0
 10 32  1  0
 11 33  1  0
 11 34  1  0
 12 35  1  0
 12 36  1  0
 13 37  1  0
 13 38  1  0
 14 39  1  0
 14 40  1  0
M  CHG  2   4   1   7   1
M  END
$$$$
=
     RDKit          3D

 41 42  0  0  0  0  0  0  0  0999 V2000
   18.1780   16.9520    5.0700 O   0  0  0  0  0  0  0  0  0  0  0  0
   17.1670   16.9960    6.0910 C   0  0  0  0  0  0  0  0  0  0  0  0
   16.1990   15.8200    5.9840 C   0  0  0  0  0  0  0  0  0  0  0  0
   15.1960   16.0090    4.8440 C   0  0  0  0  0  0  0  0  0  0  0  0
   14.9840   14.7360    4.0680 C   0  0  0  0  0  0  0  0  0  0  0  0
   13.7370   14.0970    4.0800 C   0  0  0  0  0  0  0  0  0  0  0  0
   13.5450   12.9090    3.3720 C   0  0  0  0  0  0  0  0  0  0  0  0
   14.5960   12.3480    2.6500 C   0  0  0  0  0  0  0  0  0  0  0  0
   15.8420   12.9720    2.6370 C   0  0  0  0  0  0  0  0  0  0  0  0
   16.0370   14.1600    3.3450 C   0  0  0  0  0  0  0  0  0  0  0  0
   18.9010   15.7130    5.0780 C   0  0  0  0  0  0  0  0  0  0  0  0
   20.2120   15.8550    4.2780 C   0  0  0  0  0  0  0  0  0  0  0  0
   21.4590   15.6500    5.1530 C   0  0  0  0  0  0  0  0  0  0  0  0
   21.7210   16.7670    6.1610 C   0  0  0  0  0  0  0  0  0  0  0  0
   21.0390   18.0220    5.7480 N   0  0  0  0  0  4  0  0  0  0  0  0
   21.0760   18.2910    4.2910 C   0  0  0  0  0  0  0  0  0  0  0  0
   20.2910   17.2120    3.5470 C   0  0  0  0  0  0  0  0  0  0  0  0
   17.6550   16.9665    7.0764 H   0  0  0  0  0  0  0  0  0  0  0  0
   16.5915   17.9244    5.9615 H   0  0  0  0  0  0  0  0  0  0  0  0
   16.7749   14.9006    5.8023 H   0  0  0  0  0  0  0  0  0  0  0  0
   15.6357   15.7550    6.9266 H   0  0  0  0  0  0  0  0  0  0  0  0
   14.2334   16.3326    5.2668 H   0  0  0  0  0  0  0  0  0  0  0  0
   15.6001   16.7656    4.1554 H   0  0  0  0  0  0  0  0  0  0  0  0
   12.9043   14.5340    4.6507 H   0  0  0  0  0  0  0  0  0  0  0  0
   12.5621   12.4152    3.3843 H   0  0  0  0  0  0  0  0  0  0  0  0
   14.4425   11.4133    2.0907 H   0  0  0  0  0  0  0  0  0  0  0  0
   16.6727   12.5284    2.0686 H   0  0  0  0  0  0  0  0  0  0  0  0
   17.0235   14.6466    3.3350 H   0  0  0  0  0  0  0  0  0  0  0  0
   19.1372   15.4371    6.1163 H   0  0  0  0  0  0  0  0  0  0  0  0
   18.2803   14.9327    4.6135 H   0  0  0  0  0  0  0  0  0  0  0  0
   20.1967   15.0534    3.5248 H   0  0  0  0  0  0  0  0  0  0  0  0
   21.3369   14.7085    5.7087 H   0  0  0  0  0  0  0  0  0  0  0  0
   22.3205   15.6398    4.4692 H   0  0  0  0  0  0  0  0  0  0  0  0
   21.3430   16.4589    7.1470 H   0  0  0  0  0  0  0  0  0  0  0  0
   22.8041   16.9532    6.2071 H   0  0  0  0  0  0  0  0  0  0  0  0
   20.0528   17.9630    6.0393 H   0  0  0  0  0  0  0  0  0  0  0  0
   21.5475   18.7945    6.2014 H   0  0  0  0  0  0  0  0  0  0  0  0
   20.6265   19.2745    4.0894 H   0  0  0  0  0  0  0  0  0  0  0  0
   22.1205   18.2840    3.9461 H   0  0  0  0  0  0  0  0  0  0  0  0
   20.7725   17.0486    2.5716 H   0  0  0  0  0  0  0  0  0  0  0  0
   19.2581   17.5808    3.4623 H   0  0  0  0  0  0  0  0  0  0  0  0
  2  1  1  0
  3  2  1  0
  4  3  1  0
  5  4  1  0
  6  5  2  0
  7  6  1  0
  8  7  2  0
  9  8  1  0
 10  9  2  0
 10  5  1  0
 11  1  1  0
 12 11  1  0
 13 12  1  0
 14 13  1  0
 15 14  1  0
 16 15  1  0
 17 12  1  0
 17 16  1  0
  2 18  1  0
  2 19  1  0
  3 20  1  0
  3 21  1  0
  4 22  1  0
  4 23  1  0
  6 24  1  0
  7 25  1  0
  8 26  1  0
  9 27  1  0
 10 28  1  0
 11 29  1  0
 11 30  1  0
 12 31  1  0
 13 32  1  0
 13 33  1  0
 14 34  1  0
 14 35  1  0
 15 36  1  0
 15 37  1  0
 16 38  1  0
 16 39  1  0
 17 40  1  0
 17 41  1  0
M  CHG  1  15   1
M  END
$$$$
=
     RDKit          3D

 61 63  0  0  0  0  0  0  0  0999 V2000
   14.7000   12.1410    3.1900 N   0  0  0  0  0  4  0  0  0  0  0  0
   15.1990   13.5690    3.1220 C   0  0  1  0  0  0  0  0  0  0  0  0
   14.5640   14.4570    4.1550 C   0  0  0  0  0  0  0  0  0  0  0  0
   15.6770   15.4190    4.4680 C   0  0  0  0  0  0  0  0  0  0  0  0
   15.4430   16.5050    4.9710 O   0  0  0  0  0  0  0  0  0  0  0  0
   16.8840   14.8460    4.1200 N   0  0  0  0  0  0  0  0  0  0  0  0
   16.6670   13.6620    3.4560 C   0  0  0  0  0  0  0  0  0  0  0  0
   17.4150   12.7360    3.1750 O   0  0  0  0  0  0  0  0  0  0  0  0
   18.1750   15.3750    4.4420 C   0  0  0  0  0  0  0  0  0  0  0  0
   18.8300   15.0460    5.6390 C   0  0  0  0  0  0  0  0  0  0  0  0
   20.0940   15.5670    5.9530 C   0  0  0  0  0  0  0  0  0  0  0  0
   20.7450   16.4360    5.0750 C   0  0  0  0  0  0  0  0  0  0  0  0
   20.1090   16.7780    3.8810 C   0  0  0  0  0  0  0  0  0  0  0  0
   18.8430   16.2540    3.5710 C   0  0  0  0  0  0  0  0  0  0  0  0
   22.0850   16.9570    5.4570 C   0  0  0  0  0  0  0  0  0  0  0  0
   22.5660   16.8160    6.5690 O   0  0  0  0  0  0  0  0  0  0  0  0
   22.6670   17.5900    4.4090 O   0  0  0  0  0  0  0  0  0  0  0  0
   23.1190   18.9130    4.7100 C   0  0  0  0  0  0  0  0  0  0  0  0
   13.2490   11.9840    3.5210 C   0  0  0  0  0  0  0  0  0  0  0  0
   12.3940   12.4780    2.3540 C   0  0  0  0  0  0  0  0  0  0  0  0
    8.6160   12.1510    2.7170 C   0  0  0  0  0  0  0  0  0  0  0  0
    9.9290   11.9450    2.2840 C   0  0  0  0  0  0  0  0  0  0  0  0
   10.9780   12.7220    2.7990 C   0  0  0  0  0  0  0  0  0  0  0  0
   10.6880   13.7050    3.7540 C   0  0  0  0  0  0  0  0  0  0  0  0
    9.3770   13.8900    4.2010 C   0  0  0  0  0  0  0  0  0  0  0  0
    8.3420   13.0910    3.7120 C   0  0  0  0  0  0  0  0  0  0  0  0
    7.6520   11.3640    2.1460 O   0  0  0  0  0  0  0  0  0  0  0  0
    7.3680    9.6850    0.4730 C   0  0  0  0  0  0  0  0  0  0  0  0
    8.0200   11.0150    0.8030 C   0  0  0  0  0  0  0  0  0  0  0  0
    7.1030   13.3420    4.2350 O   0  0  0  0  0  0  0  0  0  0  0  0
    6.9780   12.9620    5.6110 C   0  0  0  0  0  0  0  0  0  0  0  0
    6.4230   11.5500    5.6530 C   0  0  0  0  0  0  0  0  0  0  0  0
   14.8662   11.7021    2.2731 H   0  0  0  0  0  0  0  0  0  0  0  0
   15.2172   11.6957    3.9614 H   0  0  0  0  0  0  0  0  0  0  0  0
   14.9608   13.8820    2.0947 H   0  0  0  0  0  0  0  0  0  0  0  0
   13.6865   14.9802    3.7472 H   0  0  0  0  0  0  0  0  0  0  0  0
   14.1866   13.9145    5.0343 H   0  0  0  0  0  0  0  0  0  0  0  0
   18.3401   14.3628    6.3483 H   0  0  0  0  0  0  0  0  0  0  0  0
   20.5775   15.2881    6.9009 H   0  0  0  0  0  0  0  0  0  0  0  0
   20.6030   17.4635    3.1767 H   0  0  0  0  0  0  0  0  0  0  0  0
   18.3622   16.5383    2.6234 H   0  0  0  0  0  0  0  0  0  0  0  0
   23.1643   19.0456    5.8010 H   0  0  0  0  0  0  0  0  0  0  0  0
   24.1201   19.0651    4.2802 H   0  0  0  0  0  0  0  0  0  0  0  0
   22.4203   19.6459    4.2802 H   0  0  0  0  0  0  0  0  0  0  0  0
   13.0305   10.9226    3.7098 H   0  0  0  0  0  0  0  0  0  0  0  0
   13.0155   12.5764    4.4180 H   0  0  0  0  0  0  0  0  0  0  0  0
   12.8180   13.4166    1.9675 H   0  0  0  0  0  0  0  0  0  0  0  0
   12.3903   11.7089    1.5676 H   0  0  0  0  0  0  0  0  0  0  0  0
   10.1415   11.1685    1.5344 H   0  0  0  0  0  0  0  0  0  0  0  0
   11.4965   14.3345    4.1541 H   0  0  0  0  0  0  0  0  0  0  0  0
    9.1589   14.6713    4.9440 H   0  0  0  0  0  0  0  0  0  0  0  0
    7.1112    9.1611    1.4055 H   0  0  0  0  0  0  0  0  0  0  0  0
    6.4536    9.8602   -0.1129 H   0  0  0  0  0  0  0  0  0  0  0  0
    8.0666    9.0695   -0.1129 H   0  0  0  0  0  0  0  0  0  0  0  0
    9.1136   10.9247    0.7263 H   0  0  0  0  0  0  0  0  0  0  0  0
    7.6855   11.7915    0.0993 H   0  0  0  0  0  0  0  0  0  0  0  0
    7.9636   12.9914    6.0985 H   0  0  0  0  0  0  0  0  0  0  0  0
    6.3081   13.6544    6.1418 H   0  0  0  0  0  0  0  0  0  0  0  0
    6.2994   11.2356    6.6998 H   0  0  0  0  0  0  0  0  0  0  0  0
    5.4478   11.5241    5.1448 H   0  0  0  0  0  0  0  0  0  0  0  0
    7.1196   10.8670    5.1448 H   0  0  0  0  0  0  0  0  0  0  0  0
  2  1  1  0
  3  2  1  0
  4  3  1  0
  5  4  2  0
  6  4  1  0
  7  2  1  0
  7  6  1  0
  8  7  2  0
  9  6  1  0
 10  9  2  0
 11 10  1  0
 12 11  2  0
 13 12  1  0
 14  9  1  0
 14 13  2  0
 15 12  1  0
 16 15  2  0
 17 15  1  0
 18 17  1  0
 19  1  1  0
 20 19  1  0
 22 21  2  0
 23 22  1  0
 23 20  1  0
 24 23  2  0
 25 24  1  0
 26 25  2  0
 26 21  1  0
 27 21  1  0
 29 28  1  0
 29 27  1  0
 30 26  1  0
 31 30  1  0
 32 31  1  0
  1 33  1  0
  1 34  1  0
  2 35  1  6
  3 36  1  0
  3 37  1  0
 10 38  1  0
 11 39  1  0
 13 40  1  0
 14 41  1  0
 18 42  1  0
 18 43  1  0
 18 44  1  0
 19 45  1  0
 19 46  1  0
 20 47  1  0
 20 48  1  0
 22 49  1  0
 24 50  1  0
 25 51  1  0
 28 52  1  0
 28 53  1  0
 28 54  1  0
 29 55  1  0
 29 56  1  0
 31 57  1  0
 31 58  1  0
 32 59  1  0
 32 60  1  0
 32 61  1  0
M  CHG  1   1   1
M  END
$$$$
=
     RDKit          3D

 20 20  0  0  0  0  0  0  0  0999 V2000
   21.5090   16.5240    5.9080 C   0  0  0  0  0  0  0  0  0  0  0  0
   21.2650   15.7610    6.9590 N   0  0  0  0  0  0  0  0  0  0  0  0
   20.2890   14.8640    6.5950 N   0  0  0  0  0  0  0  0  0  0  0  0
   20.0060   15.1360    5.3390 C   0  0  0  0  0  0  0  0  0  0  0  0
   20.7320   16.1690    4.8300 O   0  0  0  0  0  0  0  0  0  0  0  0
   22.1100   18.6910    4.3600 C   0  0  0  0  0  0  0  0  0  0  0  0
   22.6600   17.8170    5.8400 S   0  0  0  0  0  0  0  0  0  0  0  0
   19.0190   14.4650    4.4670 C   0  0  0  0  0  0  0  0  0  0  0  0
   17.7540   15.3150    4.3230 C   0  0  0  0  0  0  0  0  0  0  0  0
   17.7750   16.5020    5.2270 N   0  0  0  0  0  4  0  0  0  0  0  0
   21.5453   19.5884    4.6527 H   0  0  0  0  0  0  0  0  0  0  0  0
   22.9849   18.9870    3.7626 H   0  0  0  0  0  0  0  0  0  0  0  0
   21.4646   18.0303    3.7626 H   0  0  0  0  0  0  0  0  0  0  0  0
   19.4635   14.3086    3.4730 H   0  0  0  0  0  0  0  0  0  0  0  0
   18.7460   13.5007    4.9205 H   0  0  0  0  0  0  0  0  0  0  0  0
   17.6754   15.6621    3.2822 H   0  0  0  0  0  0  0  0  0  0  0  0
   16.8911   14.6913    4.5994 H   0  0  0  0  0  0  0  0  0  0  0  0
   17.7694   16.1869    6.2076 H   0  0  0  0  0  0  0  0  0  0  0  0
   18.6259   17.0543    5.0487 H   0  0  0  0  0  0  0  0  0  0  0  0
   16.9442   17.0841    5.0487 H   0  0  0  0  0  0  0  0  0  0  0  0
  2  1  2  0
  3  2  1  0
  4  3  2  0
  5  4  1  0
  5  1  1  0
  7  1  1  0
  7  6  1  0
  8  4  1  0
  9  8  1  0
 10  9  1  0
  6 11  1  0
  6 12  1  0
  6 13  1  0
  8 14  1  0
  8 15  1  0
  9 16  1  0
  9 17  1  0
 10 18  1  0
 10 19  1  0
 10 20  1  0
M  CHG  1  10   1
M  END
$$$$
=
     RDKit          3D

 35 36  0  0  0  0  0  0  0  0999 V2000
   18.3240   15.7480    4.6410 N   0  0  0  0  0  0  0  0  0  0  0  0
   18.1420   14.7410    3.7200 C   0  0  0  0  0  0  0  0  0  0  0  0
   19.0490   14.3160    3.0090 O   0  0  0  0  0  0  0  0  0  0  0  0
   18.2040   18.0950    5.9220 O   0  0  0  0  0  0  0  0  0  0  0  0
   19.3090   17.8060    5.4600 C   0  0  0  0  0  0  0  0  0  0  0  0
   20.3420   18.7010    5.5440 N   0  0  0  0  0  0  0  0  0  0  0  0
   21.6810   18.4460    5.0690 C   0  0  0  0  0  0  0  0  0  0  0  0
   22.4210   17.4280    5.9310 C   0  0  0  0  0  0  0  0  0  0  0  0
   21.5670   16.2830    6.4790 C   0  0  0  0  0  0  0  0  0  0  0  0
   20.6550   15.5910    5.4660 C   0  0  0  0  0  0  0  0  0  0  0  0
   19.5940   16.4590    4.7640 C   0  0  1  0  0  0  0  0  0  0  0  0
   16.7590   14.1900    3.6050 C   0  0  0  0  0  0  0  0  0  0  0  0
   15.6660   14.9530    4.0510 C   0  0  0  0  0  0  0  0  0  0  0  0
   14.3680   14.4520    3.9490 C   0  0  0  0  0  0  0  0  0  0  0  0
   14.1550   13.1930    3.3950 C   0  0  0  0  0  0  0  0  0  0  0  0
   15.2390   12.4250    2.9640 C   0  0  0  0  0  0  0  0  0  0  0  0
   16.5550   12.8860    3.1070 C   0  0  0  0  0  0  0  0  0  0  0  0
   17.5960   12.1220    2.5400 N   0  0  0  0  0  0  0  0  0  0  0  0
   17.5430   16.0072    5.2605 H   0  0  0  0  0  0  0  0  0  0  0  0
   20.1509   19.6169    5.9747 H   0  0  0  0  0  0  0  0  0  0  0  0
   21.6233   18.0617    4.0399 H   0  0  0  0  0  0  0  0  0  0  0  0
   22.2389   19.3929    5.1156 H   0  0  0  0  0  0  0  0  0  0  0  0
   23.2252   16.9893    5.3220 H   0  0  0  0  0  0  0  0  0  0  0  0
   22.7818   17.9825    6.8098 H   0  0  0  0  0  0  0  0  0  0  0  0
   22.2462   15.5245    6.8953 H   0  0  0  0  0  0  0  0  0  0  0  0
   20.8968   16.7389    7.2226 H   0  0  0  0  0  0  0  0  0  0  0  0
   21.2971   15.1576    4.6850 H   0  0  0  0  0  0  0  0  0  0  0  0
   20.0794   14.8621    6.0553 H   0  0  0  0  0  0  0  0  0  0  0  0
   20.0320   16.6715    3.7776 H   0  0  0  0  0  0  0  0  0  0  0  0
   15.8350   15.9505    4.4828 H   0  0  0  0  0  0  0  0  0  0  0  0
   13.5160   15.0497    4.3051 H   0  0  0  0  0  0  0  0  0  0  0  0
   13.1314   12.8023    3.2965 H   0  0  0  0  0  0  0  0  0  0  0  0
   15.0570   11.4422    2.5048 H   0  0  0  0  0  0  0  0  0  0  0  0
   18.5729   12.4362    2.6292 H   0  0  0  0  0  0  0  0  0  0  0  0
   17.3794   11.2499    2.0366 H   0  0  0  0  0  0  0  0  0  0  0  0
  2  1  1  0
  3  2  2  0
  5  4  2  0
  6  5  1  0
  7  6  1  0
  8  7  1  0
  9  8  1  0
 10  9  1  0
 11  1  1  0
 11 10  1  0
 11  5  1  0
 12  2  1  0
 13 12  2  0
 14 13  1  0
 15 14  2  0
 16 15  1  0
 17 16  2  0
 17 12  1  0
 18 17  1  0
  1 19  1  0
  6 20  1  0
  7 21  1  0
  7 22  1  0
  8 23  1  0
  8 24  1  0
  9 25  1  0
  9 26  1  0
 10 27  1  0
 10 28  1  0
 11 29  1  6
 13 30  1  0
 14 31  1  0
 15 32  1  0
 16 33  1  0
 18 34  1  0
 18 35  1  0
M  END
$$$$
=
     RDKit          3D

 29 30  0  0  0  0  0  0  0  0999 V2000
   20.4140   17.4270    4.8660 C   0  0  0  0  0  0  0  0  0  0  0  0
   21.4870   16.8890    5.8180 C   0  0  0  0  0  0  0  0  0  0  0  0
   22.5880   17.9490    5.8240 C   0  0  0  0  0  0  0  0  0  0  0  0
   22.4370   18.7310    4.5180 C   0  0  0  0  0  0  0  0  0  0  0  0
   21.2540   18.1080    3.7810 C   0  0  0  0  0  0  0  0  0  0  0  0
   17.7780   15.3010    3.8130 C   0  0  0  0  0  0  0  0  0  0  0  0
   18.8400   14.5420    3.4080 O   0  0  0  0  0  0  0  0  0  0  0  0
   19.9930   15.2540    3.7560 N   0  0  0  0  0  0  0  0  0  0  0  0
   19.5030   16.3610    4.3330 C   0  0  0  0  0  0  0  0  0  0  0  0
   18.1380   16.4290    4.3880 N   0  0  0  0  0  0  0  0  0  0  0  0
   15.3790   15.4320    4.4240 C   0  0  0  0  0  0  0  0  0  0  0  0
   16.4240   14.7590    3.5500 C   0  0  0  0  0  0  0  0  0  0  0  0
   19.6320   18.4970    5.5960 N   0  0  0  0  0  4  0  0  0  0  0  0
   21.0740   16.7566    6.8289 H   0  0  0  0  0  0  0  0  0  0  0  0
   21.8647   15.9068    5.4976 H   0  0  0  0  0  0  0  0  0  0  0  0
   22.4656   18.6206    6.6866 H   0  0  0  0  0  0  0  0  0  0  0  0
   23.5847   17.4903    5.9028 H   0  0  0  0  0  0  0  0  0  0  0  0
   22.2380   19.7919    4.7299 H   0  0  0  0  0  0  0  0  0  0  0  0
   23.3552   18.6826    3.9141 H   0  0  0  0  0  0  0  0  0  0  0  0
   21.6044   17.3695    3.0450 H   0  0  0  0  0  0  0  0  0  0  0  0
   20.6745   18.8606    3.2262 H   0  0  0  0  0  0  0  0  0  0  0  0
   15.6284   15.2714    5.4833 H   0  0  0  0  0  0  0  0  0  0  0  0
   15.3624   16.5110    4.2107 H   0  0  0  0  0  0  0  0  0  0  0  0
   14.3898   15.0008    4.2107 H   0  0  0  0  0  0  0  0  0  0  0  0
   16.4238   13.6790    3.7589 H   0  0  0  0  0  0  0  0  0  0  0  0
   16.1718   14.9525    2.4969 H   0  0  0  0  0  0  0  0  0  0  0  0
   19.7310   18.3615    6.6122 H   0  0  0  0  0  0  0  0  0  0  0  0
   19.9953   19.4252    5.3364 H   0  0  0  0  0  0  0  0  0  0  0  0
   18.6373   18.4327    5.3364 H   0  0  0  0  0  0  0  0  0  0  0  0
  2  1  1  0
  3  2  1  0
  4  3  1  0
  5  1  1  0
  5  4  1  0
  7  6  1  0
  8  7  1  0
  9  8  2  0
  9  1  1  0
 10  6  2  0
 10  9  1  0
 12 11  1  0
 12  6  1  0
 13  1  1  0
  2 14  1  0
  2 15  1  0
  3 16  1  0
  3 17  1  0
  4 18  1  0
  4 19  1  0
  5 20  1  0
  5 21  1  0
 11 22  1  0
 11 23  1  0
 11 24  1  0
 12 25  1  0
 12 26  1  0
 13 27  1  0
 13 28  1  0
 13 29  1  0
M  CHG  1  13   1
M  END
$$$$
=
     RDKit          3D

 42 42  0  0  0  0  0  0  0  0999 V2000
   17.6530   15.5840    4.0830 N   0  0  0  0  0  4  0  0  0  0  0  0
   16.9790   16.1450    5.2890 C   0  0  0  0  0  0  0  0  0  0  0  0
   15.6280   15.4610    5.4570 C   0  0  0  0  0  0  0  0  0  0  0  0
   14.6150   15.8560    4.3790 C   0  0  0  0  0  0  0  0  0  0  0  0
   13.5850   14.7610    4.0850 C   0  0  0  0  0  0  0  0  0  0  0  0
   14.1360   13.3480    4.3090 C   0  0  0  0  0  0  0  0  0  0  0  0
   15.7660   12.8880    2.3820 C   0  0  0  0  0  0  0  0  0  0  0  0
   14.4270   12.5680    3.0230 C   0  0  0  0  0  0  0  0  0  0  0  0
   18.7100   14.5720    4.3760 C   0  0  0  0  0  0  0  0  0  0  0  0
   19.7720   15.1720    5.2140 C   0  0  0  0  0  0  0  0  0  0  0  0
   20.1060   14.8390    6.5470 C   0  0  0  0  0  0  0  0  0  0  0  0
   21.1410   15.5420    7.0010 N   0  0  0  0  0  0  0  0  0  0  0  0
   21.4550   16.3660    5.9880 N   0  0  0  0  0  0  0  0  0  0  0  0
   20.6630   16.1760    4.8870 C   0  0  0  0  0  0  0  0  0  0  0  0
   22.5480   17.3020    6.1360 C   0  0  0  0  0  0  0  0  0  0  0  0
   22.7700   18.0620    4.8530 C   0  0  0  0  0  0  0  0  0  0  0  0
   21.8750   19.0850    4.7740 F   0  0  0  0  0  0  0  0  0  0  0  0
   23.9990   18.6380    4.8820 F   0  0  0  0  0  0  0  0  0  0  0  0
   16.9363   15.1382    3.4927 H   0  0  0  0  0  0  0  0  0  0  0  0
   18.1251   16.3731    3.6190 H   0  0  0  0  0  0  0  0  0  0  0  0
   17.5996   15.9619    6.1785 H   0  0  0  0  0  0  0  0  0  0  0  0
   16.8374   17.2292    5.1686 H   0  0  0  0  0  0  0  0  0  0  0  0
   15.7792   14.3723    5.4129 H   0  0  0  0  0  0  0  0  0  0  0  0
   15.2170   15.7816    6.4257 H   0  0  0  0  0  0  0  0  0  0  0  0
   14.0806   16.7567    4.7153 H   0  0  0  0  0  0  0  0  0  0  0  0
   15.1786   16.0308    3.4507 H   0  0  0  0  0  0  0  0  0  0  0  0
   12.7178   14.9084    4.7455 H   0  0  0  0  0  0  0  0  0  0  0  0
   13.3095   14.8434    3.0232 H   0  0  0  0  0  0  0  0  0  0  0  0
   15.0726   13.4310    4.8798 H   0  0  0  0  0  0  0  0  0  0  0  0
   13.3543   12.7887    4.8439 H   0  0  0  0  0  0  0  0  0  0  0  0
   16.5151   13.0670    3.1674 H   0  0  0  0  0  0  0  0  0  0  0  0
   16.0852   12.0408    1.7571 H   0  0  0  0  0  0  0  0  0  0  0  0
   15.6677   13.7879    1.7571 H   0  0  0  0  0  0  0  0  0  0  0  0
   13.6343   12.7969    2.2955 H   0  0  0  0  0  0  0  0  0  0  0  0
   14.4601   11.5047    3.3026 H   0  0  0  0  0  0  0  0  0  0  0  0
   18.2613   13.7221    4.9111 H   0  0  0  0  0  0  0  0  0  0  0  0
   19.1509   14.2281    3.4287 H   0  0  0  0  0  0  0  0  0  0  0  0
   19.5708   14.0841    7.1417 H   0  0  0  0  0  0  0  0  0  0  0  0
   20.7242   16.7163    3.9308 H   0  0  0  0  0  0  0  0  0  0  0  0
   22.3095   18.0127    6.9410 H   0  0  0  0  0  0  0  0  0  0  0  0
   23.4635   16.7438    6.3817 H   0  0  0  0  0  0  0  0  0  0  0  0
   22.6655   17.3653    4.0082 H   0  0  0  0  0  0  0  0  0  0  0  0
  2  1  1  0
  3  2  1  0
  4  3  1  0
  5  4  1  0
  6  5  1  0
  8  7  1  0
  8  6  1  0
  9  1  1  0
 10  9  1  0
 11 10  1  0
 12 11  2  0
 13 12  1  0
 14 10  2  0
 14 13  1  0
 15 13  1  0
 16 15  1  0
 17 16  1  0
 18 16  1  0
  1 19  1  0
  1 20  1  0
  2 21  1  0
  2 22  1  0
  3 23  1  0
  3 24  1  0
  4 25  1  0
  4 26  1  0
  5 27  1  0
  5 28  1  0
  6 29  1  0
  6 30  1  0
  7 31  1  0
  7 32  1  0
  7 33  1  0
  8 34  1  0
  8 35  1  0
  9 36  1  0
  9 37  1  0
 11 38  1  0
 14 39  1  0
 15 40  1  0
 15 41  1  0
 16 42  1  0
M  CHG  1   1   1
M  END
$$$$
=
     RDKit          3D

 51 53  0  0  0  0  0  0  0  0999 V2000
   27.0840   26.7470   14.5820 N   0  0  0  0  0  0  0  0  0  0  0  0
   27.4460   25.6280   13.6390 C   0  0  0  0  0  0  0  0  0  0  0  0
   27.3000   25.8810   12.1330 C   0  0  0  0  0  0  0  0  0  0  0  0
   28.0770   24.8790   11.2670 C   0  0  0  0  0  0  0  0  0  0  0  0
   28.3850   23.5810   11.9980 C   0  0  0  0  0  0  0  0  0  0  0  0
   29.1990   23.8270   13.2690 C   0  0  0  0  0  0  0  0  0  0  0  0
   28.8670   25.1520   13.9620 C   0  0  0  0  0  0  0  0  0  0  0  0
   28.2990   27.4370   15.1440 C   0  0  0  0  0  0  0  0  0  0  0  0
   28.3660   27.3820   16.6740 C   0  0  0  0  0  0  0  0  0  0  0  0
   29.6360   28.0590   17.1890 C   0  0  0  0  0  0  0  0  0  0  0  0
   29.7710   29.4830   16.6540 C   0  0  0  0  0  0  0  0  0  0  0  0
   29.7140   29.5240   15.1280 C   0  0  0  0  0  0  0  0  0  0  0  0
   28.4470   28.8590   14.5920 C   0  0  0  0  0  0  0  0  0  0  0  0
   25.6490   26.7550   15.5030 S   0  0  0  0  0  6  0  0  0  0  0  0
   25.1920   28.1170   15.6800 O   0  0  0  0  0  0  0  0  0  0  0  0
   25.8440   25.8940   16.6500 O   0  0  0  0  0  0  0  0  0  0  0  0
   22.5670   24.8040   12.7390 C   0  0  0  0  0  0  0  0  0  0  0  0
   23.1900   24.0630   13.7490 C   0  0  0  0  0  0  0  0  0  0  0  0
   24.1220   24.6610   14.6010 C   0  0  0  0  0  0  0  0  0  0  0  0
   24.4570   26.0040   14.4180 C   0  0  0  0  0  0  0  0  0  0  0  0
   23.8980   26.7380   13.3710 C   0  0  0  0  0  0  0  0  0  0  0  0
   22.9670   26.1270   12.5260 C   0  0  0  0  0  0  0  0  0  0  0  0
   21.7260   24.1680   11.8190 N   0  0  0  0  0  0  0  0  0  0  0  0
   26.6829   24.8583   13.8266 H   0  0  0  0  0  0  0  0  0  0  0  0
   26.2338   25.8152   11.8704 H   0  0  0  0  0  0  0  0  0  0  0  0
   27.7182   26.8779   11.9297 H   0  0  0  0  0  0  0  0  0  0  0  0
   27.4767   24.6460   10.3752 H   0  0  0  0  0  0  0  0  0  0  0  0
   29.0374   25.3455   11.0026 H   0  0  0  0  0  0  0  0  0  0  0  0
   27.4381   23.0919   12.2702 H   0  0  0  0  0  0  0  0  0  0  0  0
   28.9799   22.9430   11.3279 H   0  0  0  0  0  0  0  0  0  0  0  0
   29.0000   23.0063   13.9739 H   0  0  0  0  0  0  0  0  0  0  0  0
   30.2568   23.8747   12.9709 H   0  0  0  0  0  0  0  0  0  0  0  0
   28.9576   25.0164   15.0498 H   0  0  0  0  0  0  0  0  0  0  0  0
   29.5719   25.9131   13.5962 H   0  0  0  0  0  0  0  0  0  0  0  0
   29.1736   26.8677   14.7962 H   0  0  0  0  0  0  0  0  0  0  0  0
   27.4885   27.8973   17.0917 H   0  0  0  0  0  0  0  0  0  0  0  0
   28.3778   26.3277   16.9876 H   0  0  0  0  0  0  0  0  0  0  0  0
   29.6021   28.0923   18.2880 H   0  0  0  0  0  0  0  0  0  0  0  0
   30.5017   27.4770   16.8399 H   0  0  0  0  0  0  0  0  0  0  0  0
   28.9502   30.0941   17.0574 H   0  0  0  0  0  0  0  0  0  0  0  0
   30.7488   29.8755   16.9701 H   0  0  0  0  0  0  0  0  0  0  0  0
   29.7326   30.5734   14.7986 H   0  0  0  0  0  0  0  0  0  0  0  0
   30.5822   28.9729   14.7374 H   0  0  0  0  0  0  0  0  0  0  0  0
   27.5728   29.4548   14.8932 H   0  0  0  0  0  0  0  0  0  0  0  0
   28.5162   28.8044   13.4955 H   0  0  0  0  0  0  0  0  0  0  0  0
   22.9435   22.9983   13.8737 H   0  0  0  0  0  0  0  0  0  0  0  0
   24.5880   24.0785   15.4094 H   0  0  0  0  0  0  0  0  0  0  0  0
   24.1872   27.7873   13.2122 H   0  0  0  0  0  0  0  0  0  0  0  0
   22.5440   26.6936   11.6834 H   0  0  0  0  0  0  0  0  0  0  0  0
   21.2681   24.7151   11.0760 H   0  0  0  0  0  0  0  0  0  0  0  0
   21.5648   23.1528   11.8848 H   0  0  0  0  0  0  0  0  0  0  0  0
  2  1  1  0
  3  2  1  0
  4  3  1  0
  5  4  1  0
  6  5  1  0
  7  6  1  0
  7  2  1  0
  8  1  1  0
  9  8  1  0
 10  9  1  0
 11 10  1  0
 12 11  1  0
 13 12  1  0
 13  8  1  0
 14  1  1  0
 15 14  2  0
 16 14  2  0
 18 17  2  0
 19 18  1  0
 20 19  2  0
 20 14  1  0
 21 20  1  0
 22 21  2  0
 22 17  1  0
 23 17  1  0
  2 24  1  0
  3 25  1  0
  3 26  1  0
  4 27  1  0
  4 28  1  0
  5 29  1  0
  5 30  1  0
  6 31  1  0
  6 32  1  0
  7 33  1  0
  7 34  1  0
  8 35  1  0
  9 36  1  0
  9 37  1  0
 10 38  1  0
 10 39  1  0
 11 40  1  0
 11 41  1  0
 12 42  1  0
 12 43  1  0
 13 44  1  0
 13 45  1  0
 18 46  1  0
 19 47  1  0
 21 48  1  0
 22 49  1  0
 23 50  1  0
 23 51  1  0
M  END
$$$$
=
     RDKit          3D

 22 23  0  0  0  0  0  0  0  0999 V2000
   19.1030   15.6610    5.6780 N   0  0  0  0  0  0  0  0  0  0  0  0
   19.5570   14.7210    6.5280 N   0  0  0  0  0  0  0  0  0  0  0  0
   20.8140   15.0270    6.8260 N   0  0  0  0  0  0  0  0  0  0  0  0
   21.1420   16.1780    6.1600 C   0  0  0  0  0  0  0  0  0  0  0  0
   20.0550   16.6080    5.4080 C   0  0  0  0  0  0  0  0  0  0  0  0
   20.0970   17.7460    4.5990 C   0  0  0  0  0  0  0  0  0  0  0  0
   21.3010   18.4640    4.5900 C   0  0  0  0  0  0  0  0  0  0  0  0
   22.3970   18.0930    5.3800 C   0  0  0  0  0  0  0  0  0  0  0  0
   22.3380   16.9110    6.1310 C   0  0  0  0  0  0  0  0  0  0  0  0
   23.6150   18.7750    5.2470 N   0  0  0  0  0  0  0  0  0  0  0  0
   16.7610   16.3060    6.0630 C   0  0  0  0  0  0  0  0  0  0  0  0
   17.7530   15.5810    5.1710 C   0  0  0  0  0  0  0  0  0  0  0  0
   19.2303   18.0623    4.0001 H   0  0  0  0  0  0  0  0  0  0  0  0
   21.3881   19.3480    3.9412 H   0  0  0  0  0  0  0  0  0  0  0  0
   23.2185   16.5624    6.6907 H   0  0  0  0  0  0  0  0  0  0  0  0
   24.4226   18.5046    5.8263 H   0  0  0  0  0  0  0  0  0  0  0  0
   23.7021   19.5463    4.5700 H   0  0  0  0  0  0  0  0  0  0  0  0
   17.0133   16.1216    7.1177 H   0  0  0  0  0  0  0  0  0  0  0  0
   16.8054   17.3860    5.8588 H   0  0  0  0  0  0  0  0  0  0  0  0
   15.7455   15.9357    5.8588 H   0  0  0  0  0  0  0  0  0  0  0  0
   17.4617   14.5223    5.1047 H   0  0  0  0  0  0  0  0  0  0  0  0
   17.7343   16.0642    4.1830 H   0  0  0  0  0  0  0  0  0  0  0  0
  2  1  1  0
  3  2  2  0
  4  3  1  0
  5  4  2  0
  5  1  1  0
  6  5  1  0
  7  6  2  0
  8  7  1  0
  9  4  1  0
  9  8  2  0
 10  8  1  0
 12 11  1  0
 12  1  1  0
  6 13  1  0
  7 14  1  0
  9 15  1  0
 10 16  1  0
 10 17  1  0
 11 18  1  0
 11 19  1  0
 11 20  1  0
 12 21  1  0
 12 22  1  0
M  END
$$$$
=
     RDKit          3D

 28 28  0  0  0  0  0  0  0  0999 V2000
   13.8500   13.6600    3.8890 C   0  0  0  0  0  0  0  0  0  0  0  0
   14.9070   13.0660    3.1790 C   0  0  0  0  0  0  0  0  0  0  0  0
   16.1680   13.6750    3.1100 C   0  0  0  0  0  0  0  0  0  0  0  0
   16.4000   14.8950    3.7450 C   0  0  0  0  0  0  0  0  0  0  0  0
   15.3480   15.4870    4.4460 C   0  0  0  0  0  0  0  0  0  0  0  0
   14.0900   14.8880    4.5230 C   0  0  0  0  0  0  0  0  0  0  0  0
   15.5210   16.6640    5.0640 F   0  0  0  0  0  0  0  0  0  0  0  0
   12.4880   12.9990    3.9210 C   0  0  1  0  0  0  0  0  0  0  0  0
   11.3400   14.0090    3.9370 C   0  0  0  0  0  0  0  0  0  0  0  0
   10.9810   11.9420    2.1710 C   0  0  0  0  0  0  0  0  0  0  0  0
   12.3450   12.0790    2.7420 N   0  0  0  0  0  4  0  0  0  0  0  0
   17.5760   15.5880    3.7420 O   0  0  0  0  0  0  0  0  0  0  0  0
   18.7790   14.8440    3.8900 C   0  0  0  0  0  0  0  0  0  0  0  0
   14.7422   12.1059    2.6681 H   0  0  0  0  0  0  0  0  0  0  0  0
   16.9802   13.1872    2.5511 H   0  0  0  0  0  0  0  0  0  0  0  0
   13.2824   15.3814    5.0838 H   0  0  0  0  0  0  0  0  0  0  0  0
   12.4249   12.4276    4.8588 H   0  0  0  0  0  0  0  0  0  0  0  0
   11.0729   14.2440    4.9779 H   0  0  0  0  0  0  0  0  0  0  0  0
   11.6539   14.9291    3.4223 H   0  0  0  0  0  0  0  0  0  0  0  0
   10.4674   13.5805    3.4223 H   0  0  0  0  0  0  0  0  0  0  0  0
   10.2474   11.8683    2.9874 H   0  0  0  0  0  0  0  0  0  0  0  0
   10.7528   12.8217    1.5513 H   0  0  0  0  0  0  0  0  0  0  0  0
   10.9324   11.0345    1.5513 H   0  0  0  0  0  0  0  0  0  0  0  0
   12.6568   11.1424    3.0361 H   0  0  0  0  0  0  0  0  0  0  0  0
   12.9125   12.5032    1.9944 H   0  0  0  0  0  0  0  0  0  0  0  0
   18.9974   14.7090    4.9596 H   0  0  0  0  0  0  0  0  0  0  0  0
   18.6626   13.8599    3.4124 H   0  0  0  0  0  0  0  0  0  0  0  0
   19.6075   15.3877    3.4124 H   0  0  0  0  0  0  0  0  0  0  0  0
  2  1  2  0
  3  2  1  0
  4  3  2  0
  5  4  1  0
  6  5  2  0
  6  1  1  0
  7  5  1  0
  8  1  1  0
  9  8  1  0
 11 10  1  0
 11  8  1  0
 12  4  1  0
 13 12  1  0
  2 14  1  0
  3 15  1  0
  6 16  1  0
  8 17  1  1
  9 18  1  0
  9 19  1  0
  9 20  1  0
 10 21  1  0
 10 22  1  0
 10 23  1  0
 11 24  1  0
 11 25  1  0
 13 26  1  0
 13 27  1  0
 13 28  1  0
M  CHG  1  11   1
M  END
$$$$
=
     RDKit          3D

 42 43  0  0  0  0  0  0  0  0999 V2000
   27.9710   23.4490   12.0440 C   0  0  1  0  0  0  0  0  0  0  0  0
   28.1530   24.8420   11.7500 O   0  0  0  0  0  0  0  0  0  0  0  0
   27.2860   25.6880   12.5040 C   0  0  2  0  0  0  0  0  0  0  0  0
   25.8180   25.5250   12.0130 C   0  0  1  0  0  0  0  0  0  0  0  0
   25.5400   24.0760   11.5400 C   0  0  2  0  0  0  0  0  0  0  0  0
   26.4830   23.0590   12.2010 C   0  0  2  0  0  0  0  0  0  0  0  0
   24.8700   25.9010   13.0860 N   0  0  0  0  0  0  0  0  0  0  0  0
   23.6700   26.5160   12.8090 C   0  0  0  0  0  0  0  0  0  0  0  0
   23.2160   26.6730   11.6820 O   0  0  0  0  0  0  0  0  0  0  0  0
   22.9400   27.0050   14.0330 C   0  0  0  0  0  0  0  0  0  0  0  0
   26.1720   23.0130   13.6080 O   0  0  0  0  0  0  0  0  0  0  0  0
   25.5580   23.9740   10.1140 O   0  0  0  0  0  0  0  0  0  0  0  0
   28.6550   22.6740   10.9070 C   0  0  0  0  0  0  0  0  0  0  0  0
   28.0820   21.3720   10.7730 O   0  0  0  0  0  0  0  0  0  0  0  0
   27.6680   27.0590   12.3260 O   0  0  0  0  0  0  0  0  0  0  0  0
   28.3670   27.6010   13.3650 C   0  0  0  0  0  0  0  0  0  0  0  0
   29.1960   26.7330   14.0700 C   0  0  0  0  0  0  0  0  0  0  0  0
   29.9410   27.2010   15.1550 C   0  0  0  0  0  0  0  0  0  0  0  0
   29.8150   28.5250   15.5860 C   0  0  0  0  0  0  0  0  0  0  0  0
   29.0040   29.3950   14.8510 C   0  0  0  0  0  0  0  0  0  0  0  0
   28.2590   28.9330   13.7620 C   0  0  0  0  0  0  0  0  0  0  0  0
   30.6470   29.0200   16.5960 N   0  0  0  0  0  0  0  0  0  0  0  0
   28.4214   23.2022   13.0168 H   0  0  0  0  0  0  0  0  0  0  0  0
   27.3618   25.4051   13.5643 H   0  0  0  0  0  0  0  0  0  0  0  0
   25.6740   26.1980   11.1549 H   0  0  0  0  0  0  0  0  0  0  0  0
   24.5224   23.8210   11.8707 H   0  0  0  0  0  0  0  0  0  0  0  0
   26.3364   22.0853   11.7108 H   0  0  0  0  0  0  0  0  0  0  0  0
   25.1147   25.6971   14.0655 H   0  0  0  0  0  0  0  0  0  0  0  0
   23.4623   26.6551   14.9356 H   0  0  0  0  0  0  0  0  0  0  0  0
   22.9122   28.1046   14.0285 H   0  0  0  0  0  0  0  0  0  0  0  0
   21.9125   26.6122   14.0285 H   0  0  0  0  0  0  0  0  0  0  0  0
   27.0019   23.1358   14.1336 H   0  0  0  0  0  0  0  0  0  0  0  0
   25.7239   23.0337    9.8525 H   0  0  0  0  0  0  0  0  0  0  0  0
   28.5253   23.2253    9.9640 H   0  0  0  0  0  0  0  0  0  0  0  0
   29.7247   22.5694   11.1412 H   0  0  0  0  0  0  0  0  0  0  0  0
   27.9144   20.9912   11.6713 H   0  0  0  0  0  0  0  0  0  0  0  0
   29.2646   25.6763   13.7721 H   0  0  0  0  0  0  0  0  0  0  0  0
   30.6328   26.5219   15.6748 H   0  0  0  0  0  0  0  0  0  0  0  0
   28.9515   30.4569   15.1333 H   0  0  0  0  0  0  0  0  0  0  0  0
   27.5901   29.6180   13.2204 H   0  0  0  0  0  0  0  0  0  0  0  0
   30.5506   29.9961   16.9104 H   0  0  0  0  0  0  0  0  0  0  0  0
   31.3559   28.4083   17.0252 H   0  0  0  0  0  0  0  0  0  0  0  0
  2  1  1  0
  3  2  1  0
  4  3  1  0
  5  4  1  0
  6  5  1  0
  6  1  1  0
  7  4  1  0
  8  7  1  0
  9  8  2  0
 10  8  1  0
 11  6  1  0
 12  5  1  0
 13  1  1  0
 14 13  1  0
 15  3  1  0
 16 15  1  0
 17 16  2  0
 18 17  1  0
 19 18  2  0
 20 19  1  0
 21 20  2  0
 21 16  1  0
 22 19  1  0
  1 23  1  1
  3 24  1  1
  4 25  1  6
  5 26  1  1
  6 27  1  6
  7 28  1  0
 10 29  1  0
 10 30  1  0
 10 31  1  0
 11 32  1  0
 12 33  1  0
 13 34  1  0
 13 35  1  0
 14 36  1  0
 17 37  1  0
 18 38  1  0
 20 39  1  0
 21 40  1  0
 22 41  1  0
 22 42  1  0
M  END
$$$$
=
     RDKit          3D

 26 27  0  0  0  0  0  0  0  0999 V2000
   18.8380   15.0640    3.6930 O   0  0  0  0  0  0  0  0  0  0  0  0
   15.2990   14.1450    3.8410 C   0  0  0  0  0  0  0  0  0  0  0  0
   14.7910   15.2090    4.5930 C   0  0  0  0  0  0  0  0  0  0  0  0
   15.6380   16.2020    5.0940 C   0  0  0  0  0  0  0  0  0  0  0  0
   17.0000   16.1660    4.8060 C   0  0  0  0  0  0  0  0  0  0  0  0
   17.4980   15.1540    3.9840 C   0  0  0  0  0  0  0  0  0  0  0  0
   16.6540   14.1490    3.5040 C   0  0  0  0  0  0  0  0  0  0  0  0
   14.4280   13.2170    3.2580 N   0  0  0  0  0  0  0  0  0  0  0  0
   19.7290   15.4070    4.7070 C   0  0  0  0  0  0  0  0  0  0  0  0
   19.7060   14.6020    5.8200 C   0  0  0  0  0  0  0  0  0  0  0  0
   20.6040   14.9300    6.8030 C   0  0  0  0  0  0  0  0  0  0  0  0
   21.4630   15.9620    6.7080 N   0  0  0  0  0  0  0  0  0  0  0  0
   21.4200   16.7060    5.5730 C   0  0  0  0  0  0  0  0  0  0  0  0
   20.5700   16.4470    4.5520 N   0  0  0  0  0  0  0  0  0  0  0  0
   22.4000   17.8770    5.4190 C   0  0  0  0  0  0  0  0  0  0  0  0
   21.7800   19.0910    5.3030 F   0  0  0  0  0  0  0  0  0  0  0  0
   23.2000   17.7630    4.3160 F   0  0  0  0  0  0  0  0  0  0  0  0
   23.2590   18.0180    6.4750 F   0  0  0  0  0  0  0  0  0  0  0  0
   13.7108   15.2653    4.7929 H   0  0  0  0  0  0  0  0  0  0  0  0
   15.2286   17.0118    5.7157 H   0  0  0  0  0  0  0  0  0  0  0  0
   17.6763   16.9273    5.2221 H   0  0  0  0  0  0  0  0  0  0  0  0
   17.0592   13.3569    2.8572 H   0  0  0  0  0  0  0  0  0  0  0  0
   14.8047   12.4342    2.7046 H   0  0  0  0  0  0  0  0  0  0  0  0
   13.4104   13.3170    3.3825 H   0  0  0  0  0  0  0  0  0  0  0  0
   19.0143   13.7521    5.9161 H   0  0  0  0  0  0  0  0  0  0  0  0
   20.6234   14.3179    7.7168 H   0  0  0  0  0  0  0  0  0  0  0  0
  3  2  2  0
  4  3  1  0
  5  4  2  0
  6  5  1  0
  6  1  1  0
  7  2  1  0
  7  6  2  0
  8  2  1  0
  9  1  1  0
 10  9  2  0
 11 10  1  0
 12 11  2  0
 13 12  1  0
 14  9  1  0
 14 13  2  0
 15 13  1  0
 16 15  1  0
 17 15  1  0
 18 15  1  0
  3 19  1  0
  4 20  1  0
  5 21  1  0
  7 22  1  0
  8 23  1  0
  8 24  1  0
 10 25  1  0
 11 26  1  0
M  END
$$$$
=
     RDKit          3D

 47 49  0  0  0  0  0  0  0  0999 V2000
   15.5310   15.0380    5.1230 N   0  0  0  0  0  0  0  0  0  0  0  0
   15.7140   16.4230    4.6060 C   0  0  0  0  0  0  0  0  0  0  0  0
   16.7750   17.1920    5.4240 C   0  0  0  0  0  0  0  0  0  0  0  0
   17.6780   16.2580    6.2290 N   0  0  0  0  0  4  0  0  0  0  0  0
   16.8430   15.4240    7.2120 C   0  0  0  0  0  0  0  0  0  0  0  0
   15.4950   14.9610    6.6030 C   0  0  0  0  0  0  0  0  0  0  0  0
   12.5890   12.7940    3.0060 C   0  0  0  0  0  0  0  0  0  0  0  0
   13.9460   12.5170    2.8720 C   0  0  0  0  0  0  0  0  0  0  0  0
   14.9020   13.2680    3.5650 C   0  0  0  0  0  0  0  0  0  0  0  0
   14.5350   14.3250    4.4160 C   0  0  0  0  0  0  0  0  0  0  0  0
   13.1610   14.5830    4.5400 C   0  0  0  0  0  0  0  0  0  0  0  0
   12.1990   13.8320    3.8440 C   0  0  0  0  0  0  0  0  0  0  0  0
   10.3690   12.2460    2.3480 C   0  0  0  0  0  0  0  0  0  0  0  0
   11.7660   11.9850    2.2790 O   0  0  0  0  0  0  0  0  0  0  0  0
   18.7440   15.4950    5.4240 C   0  0  1  0  0  0  0  0  0  0  0  0
   19.4510   16.4420    4.4980 C   0  0  0  0  0  0  0  0  0  0  0  0
   19.5560   16.5260    3.1260 C   0  0  0  0  0  0  0  0  0  0  0  0
   20.3570   17.6650    2.8600 C   0  0  0  0  0  0  0  0  0  0  0  0
   20.6890   18.2010    4.0820 C   0  0  0  0  0  0  0  0  0  0  0  0
   20.1510   17.4570    5.0830 O   0  0  0  0  0  0  0  0  0  0  0  0
   19.7800   14.6500    6.2630 C   0  0  0  0  0  0  0  0  0  0  0  0
   21.2150   15.0660    6.0790 N   0  0  0  0  0  4  0  0  0  0  0  0
   16.0378   16.3736    3.5559 H   0  0  0  0  0  0  0  0  0  0  0  0
   14.7555   16.9555    4.6931 H   0  0  0  0  0  0  0  0  0  0  0  0
   17.3987   17.7772    4.7323 H   0  0  0  0  0  0  0  0  0  0  0  0
   16.2444   17.8418    6.1355 H   0  0  0  0  0  0  0  0  0  0  0  0
   18.2934   16.8543    6.8004 H   0  0  0  0  0  0  0  0  0  0  0  0
   17.4229   14.5352    7.5015 H   0  0  0  0  0  0  0  0  0  0  0  0
   16.6161   16.0599    8.0804 H   0  0  0  0  0  0  0  0  0  0  0  0
   14.6887   15.6084    6.9781 H   0  0  0  0  0  0  0  0  0  0  0  0
   15.3160   13.9163    6.8971 H   0  0  0  0  0  0  0  0  0  0  0  0
   14.2711   11.6980    2.2135 H   0  0  0  0  0  0  0  0  0  0  0  0
   15.9676   13.0251    3.4407 H   0  0  0  0  0  0  0  0  0  0  0  0
   12.8278   15.3966    5.2011 H   0  0  0  0  0  0  0  0  0  0  0  0
   11.1310   14.0669    3.9630 H   0  0  0  0  0  0  0  0  0  0  0  0
   10.0584   12.3040    3.4017 H   0  0  0  0  0  0  0  0  0  0  0  0
   10.1492   13.2007    1.8478 H   0  0  0  0  0  0  0  0  0  0  0  0
    9.8193   11.4350    1.8478 H   0  0  0  0  0  0  0  0  0  0  0  0
   18.1849   14.7338    4.8601 H   0  0  0  0  0  0  0  0  0  0  0  0
   19.1083   15.8460    2.3864 H   0  0  0  0  0  0  0  0  0  0  0  0
   20.6542   18.0449    1.8714 H   0  0  0  0  0  0  0  0  0  0  0  0
   21.3021   19.1026    4.2279 H   0  0  0  0  0  0  0  0  0  0  0  0
   19.5257   14.7531    7.3282 H   0  0  0  0  0  0  0  0  0  0  0  0
   19.7048   13.6134    5.9028 H   0  0  0  0  0  0  0  0  0  0  0  0
   21.6563   15.1939    7.0008 H   0  0  0  0  0  0  0  0  0  0  0  0
   21.7194   14.3366    5.5551 H   0  0  0  0  0  0  0  0  0  0  0  0
   21.2511   15.9521    5.5551 H   0  0  0  0  0  0  0  0  0  0  0  0
  2  1  1  0
  3  2  1  0
  4  3  1  0
  5  4  1  0
  6  1  1  0
  6  5  1  0
  8  7  2  0
  9  8  1  0
 10  9  2  0
 10  1  1  0
 11 10  1  0
 12 11  2  0
 12  7  1  0
 14 13  1  0
 14  7  1  0
 15  4  1  0
 16 15  1  0
 17 16  2  0
 18 17  1  0
 19 18  2  0
 20 19  1  0
 20 16  1  0
 21 15  1  0
 22 21  1  0
  2 23  1  0
  2 24  1  0
  3 25  1  0
  3 26  1  0
  4 27  1  0
  5 28  1  0
  5 29  1  0
  6 30  1  0
  6 31  1  0
  8 32  1  0
  9 33  1  0
 11 34  1  0
 12 35  1  0
 13 36  1  0
 13 37  1  0
 13 38  1  0
 15 39  1  6
 17 40  1  0
 18 41  1  0
 19 42  1  0
 21 43  1  0
 21 44  1  0
 22 45  1  0
 22 46  1  0
 22 47  1  0
M  CHG  2   4   1  22   1
M  END
$$$$
=
     RDKit          3D

 42 45  0  0  0  0  0  0  0  0999 V2000
   11.9880   13.4020    3.3850 C   0  0  0  0  0  0  0  0  0  0  0  0
   11.5660   12.5400    2.3890 C   0  0  0  0  0  0  0  0  0  0  0  0
   10.2400   12.1420    2.3750 C   0  0  0  0  0  0  0  0  0  0  0  0
    9.3950   12.5990    3.3200 N   0  0  0  0  0  0  0  0  0  0  0  0
    9.8540   13.4500    4.2540 C   0  0  0  0  0  0  0  0  0  0  0  0
   11.1350   13.8590    4.3100 N   0  0  0  0  0  0  0  0  0  0  0  0
   15.8740   14.5700    3.4350 C   0  0  0  0  0  0  0  0  0  0  0  0
   15.0340   15.1500    4.5710 C   0  0  0  0  0  0  0  0  0  0  0  0
   13.7020   14.4080    4.7180 C   0  0  0  0  0  0  0  0  0  0  0  0
   13.3470   13.8190    3.4220 N   0  0  0  0  0  0  0  0  0  0  0  0
   14.2370   12.7440    2.9530 C   0  0  0  0  0  0  0  0  0  0  0  0
   15.6940   13.0650    3.3050 C   0  0  0  0  0  0  0  0  0  0  0  0
   17.3120   14.8840    3.6850 N   0  0  0  0  0  4  0  0  0  0  0  0
    8.8890   13.9600    5.2970 C   0  0  0  0  0  0  0  0  0  0  0  0
    8.4670   13.0710    6.4460 C   0  0  0  0  0  0  0  0  0  0  0  0
    9.3700   14.2390    6.7020 C   0  0  0  0  0  0  0  0  0  0  0  0
    9.6570   11.2050    1.3370 C   0  0  0  0  0  0  0  0  0  0  0  0
    8.9910   11.7150    0.0800 C   0  0  0  0  0  0  0  0  0  0  0  0
    8.1650   11.0550    1.1480 C   0  0  0  0  0  0  0  0  0  0  0  0
   12.2690   12.1783    1.6242 H   0  0  0  0  0  0  0  0  0  0  0  0
   15.5374   15.0258    2.4922 H   0  0  0  0  0  0  0  0  0  0  0  0
   15.5970   15.0640    5.5121 H   0  0  0  0  0  0  0  0  0  0  0  0
   14.8190   16.2035    4.3388 H   0  0  0  0  0  0  0  0  0  0  0  0
   13.8024   13.6126    5.4712 H   0  0  0  0  0  0  0  0  0  0  0  0
   12.9165   15.1075    5.0399 H   0  0  0  0  0  0  0  0  0  0  0  0
   13.9478   11.7981    3.4343 H   0  0  0  0  0  0  0  0  0  0  0  0
   14.1450   12.6557    1.8604 H   0  0  0  0  0  0  0  0  0  0  0  0
   15.9539   12.5825    4.2588 H   0  0  0  0  0  0  0  0  0  0  0  0
   16.3514   12.6885    2.5075 H   0  0  0  0  0  0  0  0  0  0  0  0
   17.4838   14.9215    4.6999 H   0  0  0  0  0  0  0  0  0  0  0  0
   17.9015   14.1519    3.2638 H   0  0  0  0  0  0  0  0  0  0  0  0
   17.5427   15.7952    3.2638 H   0  0  0  0  0  0  0  0  0  0  0  0
    8.3620   14.5353    4.5216 H   0  0  0  0  0  0  0  0  0  0  0  0
    7.4269   13.0920    6.8035 H   0  0  0  0  0  0  0  0  0  0  0  0
    8.5168   11.9915    6.6513 H   0  0  0  0  0  0  0  0  0  0  0  0
   10.4247   14.0703    6.9649 H   0  0  0  0  0  0  0  0  0  0  0  0
    9.3405   15.1098    7.3735 H   0  0  0  0  0  0  0  0  0  0  0  0
   10.4903   10.5206    1.5541 H   0  0  0  0  0  0  0  0  0  0  0  0
    8.9011   12.7975   -0.0938 H   0  0  0  0  0  0  0  0  0  0  0  0
    9.1394   11.5535   -0.9979 H   0  0  0  0  0  0  0  0  0  0  0  0
    7.4711   11.6548    1.7553 H   0  0  0  0  0  0  0  0  0  0  0  0
    7.4597   10.2113    1.1741 H   0  0  0  0  0  0  0  0  0  0  0  0
  2  1  2  0
  3  2  1  0
  4  3  2  0
  5  4  1  0
  6  5  2  0
  6  1  1  0
  8  7  1  0
  9  8  1  0
 10  9  1  0
 10  1  1  0
 11 10  1  0
 12 11  1  0
 12  7  1  0
 13  7  1  0
 14  5  1  0
 15 14  1  0
 16 14  1  0
 16 15  1  0
 17  3  1  0
 18 17  1  0
 19 18  1  0
 19 17  1  0
  2 20  1  0
  7 21  1  0
  8 22  1  0
  8 23  1  0
  9 24  1  0
  9 25  1  0
 11 26  1  0
 11 27  1  0
 12 28  1  0
 12 29  1  0
 13 30  1  0
 13 31  1  0
 13 32  1  0
 14 33  1  0
 15 34  1  0
 15 35  1  0
 16 36  1  0
 16 37  1  0
 17 38  1  0
 18 39  1  0
 18 40  1  0
 19 41  1  0
 19 42  1  0
M  CHG  1  13   1
M  END
$$$$
=
     RDKit          3D

 31 31  0  0  0  0  0  0  0  0999 V2000
   18.4860   16.6390    5.6160 C   0  0  0  0  0  0  0  0  0  0  0  0
   17.1010   16.3710    5.0210 C   0  0  2  0  0  0  0  0  0  0  0  0
   16.1800   15.6710    6.0230 C   0  0  0  0  0  0  0  0  0  0  0  0
   15.0310   15.1430    5.1780 C   0  0  0  0  0  0  0  0  0  0  0  0
   15.6530   14.8910    3.8170 N   0  0  1  0  0  4  0  0  0  0  0  0
   17.0850   15.3780    3.8630 C   0  0  0  0  0  0  0  0  0  0  0  0
   15.5020   13.4700    3.3400 C   0  0  0  0  0  0  0  0  0  0  0  0
   19.5870   16.4620    4.6300 N   0  0  0  0  0  4  0  0  0  0  0  0
   20.6760   15.4610    4.9630 C   0  0  0  0  0  0  0  0  0  0  0  0
   20.4120   14.9760    6.3910 C   0  0  0  0  0  0  0  0  0  0  0  0
   21.4750   15.4960    7.2030 O   0  0  0  0  0  0  0  0  0  0  0  0
   18.5129   17.6733    5.9895 H   0  0  0  0  0  0  0  0  0  0  0  0
   18.6451   15.9072    6.4217 H   0  0  0  0  0  0  0  0  0  0  0  0
   16.7853   17.3790    4.7140 H   0  0  0  0  0  0  0  0  0  0  0  0
   16.7062   14.8450    6.5237 H   0  0  0  0  0  0  0  0  0  0  0  0
   15.8373   16.3473    6.8200 H   0  0  0  0  0  0  0  0  0  0  0  0
   14.6312   14.2104    5.6027 H   0  0  0  0  0  0  0  0  0  0  0  0
   14.1859   15.8456    5.1308 H   0  0  0  0  0  0  0  0  0  0  0  0
   15.1412   15.4253    3.1004 H   0  0  0  0  0  0  0  0  0  0  0  0
   17.7757   14.5435    4.0542 H   0  0  0  0  0  0  0  0  0  0  0  0
   17.4089   15.8298    2.9138 H   0  0  0  0  0  0  0  0  0  0  0  0
   15.4306   12.7976    4.2076 H   0  0  0  0  0  0  0  0  0  0  0  0
   14.5895   13.3823    2.7320 H   0  0  0  0  0  0  0  0  0  0  0  0
   16.3757   13.1925    2.7320 H   0  0  0  0  0  0  0  0  0  0  0  0
   19.1592   16.1670    3.7407 H   0  0  0  0  0  0  0  0  0  0  0  0
   20.0675   17.3728    4.6095 H   0  0  0  0  0  0  0  0  0  0  0  0
   20.6381   14.6137    4.2626 H   0  0  0  0  0  0  0  0  0  0  0  0
   21.6720   15.9206    4.8809 H   0  0  0  0  0  0  0  0  0  0  0  0
   19.4424   15.3541    6.7472 H   0  0  0  0  0  0  0  0  0  0  0  0
   20.3780   13.8775    6.4373 H   0  0  0  0  0  0  0  0  0  0  0  0
   21.2450   15.3835    8.1593 H   0  0  0  0  0  0  0  0  0  0  0  0
  2  1  1  0
  3  2  1  0
  4  3  1  0
  5  4  1  0
  6  5  1  0
  6  2  1  0
  7  5  1  0
  8  1  1  0
  9  8  1  0
 10  9  1  0
 11 10  1  0
  1 12  1  0
  1 13  1  0
  2 14  1  6
  3 15  1  0
  3 16  1  0
  4 17  1  0
  4 18  1  0
  5 19  1  6
  6 20  1  0
  6 21  1  0
  7 22  1  0
  7 23  1  0
  7 24  1  0
  8 25  1  0
  8 26  1  0
  9 27  1  0
  9 28  1  0
 10 29  1  0
 10 30  1  0
 11 31  1  0
M  CHG  2   5   1   8   1
M  END
$$$$
=
     RDKit          3D

 55 58  0  0  0  0  0  0  0  0999 V2000
   17.1210   14.1680    4.5070 C   0  0  2  0  0  0  0  0  0  0  0  0
   17.8950   13.5910    3.3470 N   0  0  0  0  0  4  0  0  0  0  0  0
   17.3740   12.2610    2.8530 C   0  0  0  0  0  0  0  0  0  0  0  0
   15.9430   12.4090    2.3030 C   0  0  0  0  0  0  0  0  0  0  0  0
   15.1070   13.1940    3.2530 C   0  0  0  0  0  0  0  0  0  0  0  0
   15.6640   13.9870    4.2400 C   0  0  0  0  0  0  0  0  0  0  0  0
   14.6390   14.5310    4.9730 N   0  0  0  0  0  0  0  0  0  0  0  0
   13.4300   14.1470    4.4340 C   0  0  0  0  0  0  0  0  0  0  0  0
   13.6950   13.3060    3.3530 C   0  0  0  0  0  0  0  0  0  0  0  0
   12.6110   12.7640    2.6340 C   0  0  0  0  0  0  0  0  0  0  0  0
   11.2950   13.0870    3.0050 C   0  0  0  0  0  0  0  0  0  0  0  0
   11.0710   13.9230    4.1030 C   0  0  0  0  0  0  0  0  0  0  0  0
   12.1300   14.4710    4.8340 C   0  0  0  0  0  0  0  0  0  0  0  0
   10.1350   12.4820    2.2680 C   0  0  0  0  0  0  0  0  0  0  0  0
   18.7340   17.6390    4.0660 C   0  0  0  0  0  0  0  0  0  0  0  0
   18.3330   18.2650    5.2430 C   0  0  0  0  0  0  0  0  0  0  0  0
   17.5450   17.5760    6.1680 C   0  0  0  0  0  0  0  0  0  0  0  0
   17.1500   16.2600    5.9250 C   0  0  0  0  0  0  0  0  0  0  0  0
   17.5400   15.6080    4.7460 C   0  0  0  0  0  0  0  0  0  0  0  0
   18.3500   16.3120    3.8310 C   0  0  0  0  0  0  0  0  0  0  0  0
   19.4980   18.1990    3.0780 O   0  0  0  0  0  0  0  0  0  0  0  0
   20.8390   17.7200    2.9330 C   0  0  0  0  0  0  0  0  0  0  0  0
   21.7080   18.4330    3.9790 C   0  0  0  0  0  0  0  0  0  0  0  0
   21.8150   16.2710    5.2940 C   0  0  0  0  0  0  0  0  0  0  0  0
   22.5640   17.4790    4.7940 N   0  0  0  0  0  4  0  0  0  0  0  0
   23.2320   18.1990    5.9420 C   0  0  0  0  0  0  0  0  0  0  0  0
   17.3439   13.6398    5.4458 H   0  0  0  0  0  0  0  0  0  0  0  0
   17.8562   14.2627    2.5671 H   0  0  0  0  0  0  0  0  0  0  0  0
   18.8539   13.4256    3.6848 H   0  0  0  0  0  0  0  0  0  0  0  0
   18.0318   11.8896    2.0534 H   0  0  0  0  0  0  0  0  0  0  0  0
   17.3588   11.5520    3.6939 H   0  0  0  0  0  0  0  0  0  0  0  0
   15.9778   12.9288    1.3342 H   0  0  0  0  0  0  0  0  0  0  0  0
   15.5013   11.4096    2.1766 H   0  0  0  0  0  0  0  0  0  0  0  0
   14.7555   15.1342    5.7997 H   0  0  0  0  0  0  0  0  0  0  0  0
   12.7947   12.0898    1.7845 H   0  0  0  0  0  0  0  0  0  0  0  0
   10.0373   14.1553    4.3990 H   0  0  0  0  0  0  0  0  0  0  0  0
   11.9467   15.1333    5.6930 H   0  0  0  0  0  0  0  0  0  0  0  0
    9.4004   12.0989    2.9916 H   0  0  0  0  0  0  0  0  0  0  0  0
    9.6621   13.2483    1.6362 H   0  0  0  0  0  0  0  0  0  0  0  0
   10.4927   11.6556    1.6362 H   0  0  0  0  0  0  0  0  0  0  0  0
   18.6368   19.3028    5.4447 H   0  0  0  0  0  0  0  0  0  0  0  0
   17.2329   18.0757    7.0969 H   0  0  0  0  0  0  0  0  0  0  0  0
   16.5289   15.7306    6.6626 H   0  0  0  0  0  0  0  0  0  0  0  0
   18.6876   15.8086    2.9131 H   0  0  0  0  0  0  0  0  0  0  0  0
   20.8682   16.6332    3.1003 H   0  0  0  0  0  0  0  0  0  0  0  0
   21.2126   17.9251    1.9189 H   0  0  0  0  0  0  0  0  0  0  0  0
   22.3706   19.1410    3.4596 H   0  0  0  0  0  0  0  0  0  0  0  0
   21.0280   18.9417    4.6781 H   0  0  0  0  0  0  0  0  0  0  0  0
   21.8141   16.2695    6.3940 H   0  0  0  0  0  0  0  0  0  0  0  0
   20.7787   16.3041    4.9265 H   0  0  0  0  0  0  0  0  0  0  0  0
   22.3054   15.3575    4.9265 H   0  0  0  0  0  0  0  0  0  0  0  0
   23.2842   17.1263    4.1476 H   0  0  0  0  0  0  0  0  0  0  0  0
   22.8581   17.7960    6.8948 H   0  0  0  0  0  0  0  0  0  0  0  0
   24.3205   18.0517    5.8835 H   0  0  0  0  0  0  0  0  0  0  0  0
   23.0037   19.2735    5.8835 H   0  0  0  0  0  0  0  0  0  0  0  0
  2  1  1  0
  3  2  1  0
  4  3  1  0
  5  4  1  0
  6  5  2  0
  6  1  1  0
  7  6  1  0
  8  7  1  0
  9  8  2  0
  9  5  1  0
 10  9  1  0
 11 10  2  0
 12 11  1  0
 13 12  2  0
 13  8  1  0
 14 11  1  0
 16 15  2  0
 17 16  1  0
 18 17  2  0
 19  1  1  0
 19 18  1  0
 20 19  2  0
 20 15  1  0
 21 15  1  0
 22 21  1  0
 23 22  1  0
 25 23  1  0
 25 24  1  0
 26 25  1  0
  1 27  1  1
  2 28  1  0
  2 29  1  0
  3 30  1  0
  3 31  1  0
  4 32  1  0
  4 33  1  0
  7 34  1  0
 10 35  1  0
 12 36  1  0
 13 37  1  0
 14 38  1  0
 14 39  1  0
 14 40  1  0
 16 41  1  0
 17 42  1  0
 18 43  1  0
 20 44  1  0
 22 45  1  0
 22 46  1  0
 23 47  1  0
 23 48  1  0
 24 49  1  0
 24 50  1  0
 24 51  1  0
 25 52  1  0
 26 53  1  0
 26 54  1  0
 26 55  1  0
M  CHG  2   2   1  25   1
M  END
$$$$
=
     RDKit          3D

 31 32  0  0  0  0  0  0  0  0999 V2000
   18.0870   15.0080    4.0000 C   0  0  0  0  0  0  0  0  0  0  0  0
   18.8680   14.4460    3.2420 O   0  0  0  0  0  0  0  0  0  0  0  0
   18.3960   15.9480    4.9670 N   0  0  0  0  0  0  0  0  0  0  0  0
   12.4540   13.6430    3.8280 C   0  0  0  0  0  0  0  0  0  0  0  0
   13.9110   14.0030    3.8430 C   0  0  0  0  0  0  0  0  0  0  0  0
   14.8430   13.2190    3.1520 C   0  0  0  0  0  0  0  0  0  0  0  0
   16.2040   13.5330    3.1920 C   0  0  0  0  0  0  0  0  0  0  0  0
   16.6450   14.6380    3.9300 C   0  0  0  0  0  0  0  0  0  0  0  0
   15.7220   15.4040    4.6500 C   0  0  0  0  0  0  0  0  0  0  0  0
   14.3620   15.0880    4.6050 C   0  0  0  0  0  0  0  0  0  0  0  0
   19.6590   16.5130    5.2400 C   0  0  0  0  0  0  0  0  0  0  0  0
   20.6810   15.8520    5.9180 C   0  0  0  0  0  0  0  0  0  0  0  0
   21.9100   16.4870    6.1420 C   0  0  0  0  0  0  0  0  0  0  0  0
   22.1570   17.7690    5.6520 C   0  0  0  0  0  0  0  0  0  0  0  0
   21.1150   18.4490    5.0230 C   0  0  0  0  0  0  0  0  0  0  0  0
   19.8840   17.8220    4.7990 C   0  0  0  0  0  0  0  0  0  0  0  0
   23.3410   18.4370    5.9790 N   0  0  0  0  0  0  0  0  0  0  0  0
   17.6145   16.2721    5.5545 H   0  0  0  0  0  0  0  0  0  0  0  0
   12.0880   13.5526    4.8614 H   0  0  0  0  0  0  0  0  0  0  0  0
   11.8876   14.4282    3.3058 H   0  0  0  0  0  0  0  0  0  0  0  0
   12.3185   12.6844    3.3058 H   0  0  0  0  0  0  0  0  0  0  0  0
   14.5009   12.3486    2.5728 H   0  0  0  0  0  0  0  0  0  0  0  0
   16.9284   12.9125    2.6441 H   0  0  0  0  0  0  0  0  0  0  0  0
   16.0678   16.2567    5.2527 H   0  0  0  0  0  0  0  0  0  0  0  0
   13.6408   15.6952    5.1717 H   0  0  0  0  0  0  0  0  0  0  0  0
   20.5222   14.8254    6.2797 H   0  0  0  0  0  0  0  0  0  0  0  0
   22.6923   15.9659    6.7134 H   0  0  0  0  0  0  0  0  0  0  0  0
   21.2621   19.4899    4.6992 H   0  0  0  0  0  0  0  0  0  0  0  0
   19.0853   18.3635    4.2710 H   0  0  0  0  0  0  0  0  0  0  0  0
   23.5161   19.3838    5.6131 H   0  0  0  0  0  0  0  0  0  0  0  0
   24.0381   17.9823    6.5858 H   0  0  0  0  0  0  0  0  0  0  0  0
  2  1  2  0
  3  1  1  0
  5  4  1  0
  6  5  2  0
  7  6  1  0
  8  7  2  0
  8  1  1  0
  9  8  1  0
 10  9  2  0
 10  5  1  0
 11  3  1  0
 12 11  2  0
 13 12  1  0
 14 13  2  0
 15 14  1  0
 16 15  2  0
 16 11  1  0
 17 14  1  0
  3 18  1  0
  4 19  1  0
  4 20  1  0
  4 21  1  0
  6 22  1  0
  7 23  1  0
  9 24  1  0
 10 25  1  0
 12 26  1  0
 13 27  1  0
 15 28  1  0
 16 29  1  0
 17 30  1  0
 17 31  1  0
M  END
$$$$
=
     RDKit          3D

 40 41  0  0  0  0  0  0  0  0999 V2000
   17.4690   14.4180    3.6470 N   0  0  0  0  0  0  0  0  0  0  0  0
   16.7820   13.2800    3.2530 C   0  0  0  0  0  0  0  0  0  0  0  0
   17.2880   12.2480    2.8220 O   0  0  0  0  0  0  0  0  0  0  0  0
   15.2980   13.3780    3.3370 C   0  0  0  0  0  0  0  0  0  0  0  0
   14.7410   14.4300    4.0710 C   0  0  0  0  0  0  0  0  0  0  0  0
   13.3530   14.5520    4.1810 C   0  0  0  0  0  0  0  0  0  0  0  0
   12.5040   13.6620    3.5190 C   0  0  0  0  0  0  0  0  0  0  0  0
   13.0670   12.5900    2.8190 C   0  0  0  0  0  0  0  0  0  0  0  0
   14.4550   12.4570    2.7050 C   0  0  0  0  0  0  0  0  0  0  0  0
   11.1230   13.7170    3.7310 N   0  0  0  0  0  0  0  0  0  0  0  0
   19.4620   15.3800    4.2530 C   0  0  0  0  0  0  0  0  0  0  0  0
   18.8320   14.4340    3.6210 N   0  0  0  0  0  0  0  0  0  0  0  0
   18.8240   16.5010    4.9740 C   0  0  0  0  0  0  0  0  0  0  0  0
   17.6960   16.2550    5.7610 C   0  0  0  0  0  0  0  0  0  0  0  0
   17.1050   17.3090    6.4560 C   0  0  0  0  0  0  0  0  0  0  0  0
   17.6410   18.5960    6.3590 C   0  0  0  0  0  0  0  0  0  0  0  0
   18.7690   18.8330    5.5690 C   0  0  0  0  0  0  0  0  0  0  0  0
   19.3660   17.7840    4.8720 C   0  0  0  0  0  0  0  0  0  0  0  0
   20.9800   15.3610    4.2490 C   0  0  0  0  0  0  0  0  0  0  0  0
   22.2520   16.5790    6.0490 C   0  0  0  0  0  0  0  0  0  0  0  0
   21.5160   15.3020    5.6770 C   0  0  0  0  0  0  0  0  0  0  0  0
   16.9498   15.2510    3.9592 H   0  0  0  0  0  0  0  0  0  0  0  0
   15.3969   15.1633    4.5630 H   0  0  0  0  0  0  0  0  0  0  0  0
   12.9246   15.3575    4.7955 H   0  0  0  0  0  0  0  0  0  0  0  0
   12.4098   11.8417    2.3520 H   0  0  0  0  0  0  0  0  0  0  0  0
   14.8830   11.6299    2.1196 H   0  0  0  0  0  0  0  0  0  0  0  0
   10.5001   13.0591    3.2410 H   0  0  0  0  0  0  0  0  0  0  0  0
   10.7286   14.4155    4.3771 H   0  0  0  0  0  0  0  0  0  0  0  0
   17.2785   15.2398    5.8315 H   0  0  0  0  0  0  0  0  0  0  0  0
   16.2176   17.1279    7.0802 H   0  0  0  0  0  0  0  0  0  0  0  0
   17.1726   19.4266    6.9073 H   0  0  0  0  0  0  0  0  0  0  0  0
   19.1861   19.8483    5.4971 H   0  0  0  0  0  0  0  0  0  0  0  0
   20.2541   17.9647    4.2486 H   0  0  0  0  0  0  0  0  0  0  0  0
   21.3298   14.4781    3.6940 H   0  0  0  0  0  0  0  0  0  0  0  0
   21.3467   16.2799    3.7683 H   0  0  0  0  0  0  0  0  0  0  0  0
   22.3028   16.6671    7.1443 H   0  0  0  0  0  0  0  0  0  0  0  0
   23.2710   16.5485    5.6360 H   0  0  0  0  0  0  0  0  0  0  0  0
   21.7147   17.4455    5.6360 H   0  0  0  0  0  0  0  0  0  0  0  0
   20.6732   15.1605    6.3696 H   0  0  0  0  0  0  0  0  0  0  0  0
   22.2242   14.4631    5.7454 H   0  0  0  0  0  0  0  0  0  0  0  0
  2  1  1  0
  3  2  2  0
  4  2  1  0
  5  4  2  0
  6  5  1  0
  7  6  2  0
  8  7  1  0
  9  8  2  0
  9  4  1  0
 10  7  1  0
 12 11  2  0
 12  1  1  0
 13 11  1  0
 14 13  2  0
 15 14  1  0
 16 15  2  0
 17 16  1  0
 18 13  1  0
 18 17  2  0
 19 11  1  0
 21 19  1  0
 21 20  1  0
  1 22  1  0
  5 23  1  0
  6 24  1  0
  8 25  1  0
  9 26  1  0
 10 27  1  0
 10 28  1  0
 14 29  1  0
 15 30  1  0
 16 31  1  0
 17 32  1  0
 18 33  1  0
 19 34  1  0
 19 35  1  0
 20 36  1  0
 20 37  1  0
 20 38  1  0
 21 39  1  0
 21 40  1  0
M  END
$$$$
=
     RDKit          3D

 32 35  0  0  0  0  0  0  0  0999 V2000
   30.5520   23.3860   15.5860 O   0  0  0  0  0  0  0  0  0  0  0  0
   30.3750   24.5830   15.7440 C   0  0  0  0  0  0  0  0  0  0  0  0
   30.8510   25.3780   16.9490 C   0  0  0  0  0  0  0  0  0  0  0  0
   30.0390   26.6490   17.2370 C   0  0  0  0  0  0  0  0  0  0  0  0
   30.0260   27.5150   15.9860 C   0  0  1  0  0  0  0  0  0  0  0  0
   29.5260   26.7150   14.8580 C   0  0  0  0  0  0  0  0  0  0  0  0
   29.7370   25.3570   14.7540 N   0  0  0  0  0  0  0  0  0  0  0  0
   29.1680   24.9430   13.5500 C   0  0  0  0  0  0  0  0  0  0  0  0
   29.1360   23.6790   12.9360 C   0  0  0  0  0  0  0  0  0  0  0  0
   28.4520   23.5420   11.7260 C   0  0  0  0  0  0  0  0  0  0  0  0
   27.8100   24.6270   11.1400 C   0  0  0  0  0  0  0  0  0  0  0  0
   27.8380   25.8840   11.7510 C   0  0  0  0  0  0  0  0  0  0  0  0
   28.5300   26.0510   12.9670 C   0  0  0  0  0  0  0  0  0  0  0  0
   28.7380   27.1590   13.8250 C   0  0  0  0  0  0  0  0  0  0  0  0
   28.2290   28.5600   13.7690 C   0  0  0  0  0  0  0  0  0  0  0  0
   28.9150   29.4500   14.8330 C   0  0  0  0  0  0  0  0  0  0  0  0
   29.1230   28.7010   16.1450 N   0  0  0  0  0  4  0  0  0  0  0  0
   30.7946   24.7269   17.8338 H   0  0  0  0  0  0  0  0  0  0  0  0
   31.8754   25.7073   16.7206 H   0  0  0  0  0  0  0  0  0  0  0  0
   29.0086   26.3761   17.5087 H   0  0  0  0  0  0  0  0  0  0  0  0
   30.4944   27.2031   18.0710 H   0  0  0  0  0  0  0  0  0  0  0  0
   31.0523   27.8689   15.8089 H   0  0  0  0  0  0  0  0  0  0  0  0
   29.6386   22.8167   13.3983 H   0  0  0  0  0  0  0  0  0  0  0  0
   28.4208   22.5610   11.2293 H   0  0  0  0  0  0  0  0  0  0  0  0
   27.2756   24.4953   10.1876 H   0  0  0  0  0  0  0  0  0  0  0  0
   27.3231   26.7373   11.2855 H   0  0  0  0  0  0  0  0  0  0  0  0
   28.4308   28.9750   12.7705 H   0  0  0  0  0  0  0  0  0  0  0  0
   27.1482   28.5453   13.9729 H   0  0  0  0  0  0  0  0  0  0  0  0
   29.8932   29.7751   14.4490 H   0  0  0  0  0  0  0  0  0  0  0  0
   28.2626   30.3134   15.0305 H   0  0  0  0  0  0  0  0  0  0  0  0
   29.5403   29.3454   16.8317 H   0  0  0  0  0  0  0  0  0  0  0  0
   28.2047   28.3578   16.4609 H   0  0  0  0  0  0  0  0  0  0  0  0
  2  1  2  0
  3  2  1  0
  4  3  1  0
  5  4  1  0
  6  5  1  0
  7  6  1  0
  7  2  1  0
  8  7  1  0
  9  8  2  0
 10  9  1  0
 11 10  2  0
 12 11  1  0
 13 12  2  0
 13  8  1  0
 14 13  1  0
 14  6  2  0
 15 14  1  0
 16 15  1  0
 17 16  1  0
 17  5  1  0
  3 18  1  0
  3 19  1  0
  4 20  1  0
  4 21  1  0
  5 22  1  6
  9 23  1  0
 10 24  1  0
 11 25  1  0
 12 26  1  0
 15 27  1  0
 15 28  1  0
 16 29  1  0
 16 30  1  0
 17 31  1  0
 17 32  1  0
M  CHG  1  17   1
M  END
$$$$
=
     RDKit          3D

 42 42  0  0  0  0  0  0  0  0999 V2000
   19.0030   16.4520    5.0710 N   0  0  0  0  0  4  0  0  0  0  0  0
   17.6710   17.0700    5.5390 C   0  0  0  0  0  0  0  0  0  0  0  0
   16.5710   16.0070    5.5950 C   0  0  0  0  0  0  0  0  0  0  0  0
   16.3800   15.3460    4.2310 C   0  0  0  0  0  0  0  0  0  0  0  0
   17.7000   14.7250    3.7730 C   0  0  0  0  0  0  0  0  0  0  0  0
   18.8130   15.7750    3.7130 C   0  0  0  0  0  0  0  0  0  0  0  0
   15.2270   14.3460    4.2660 N   0  0  0  0  0  4  0  0  0  0  0  0
   13.8560   15.0050    4.3500 C   0  0  0  0  0  0  0  0  0  0  0  0
   15.2060   13.2540    3.2160 C   0  0  0  0  0  0  0  0  0  0  0  0
   20.2670   17.4690    5.1530 C   0  0  0  0  0  0  0  0  0  0  0  0
   19.7580   18.7820    5.7760 C   0  0  0  0  0  0  0  0  0  0  0  0
   20.8050   17.7220    3.7370 C   0  0  0  0  0  0  0  0  0  0  0  0
   21.4150   16.8700    6.0780 C   0  0  0  0  0  0  0  0  0  0  0  0
   21.7790   15.4420    5.8150 N   0  0  0  0  0  4  0  0  0  0  0  0
   19.2676   15.7171    5.7424 H   0  0  0  0  0  0  0  0  0  0  0  0
   17.8062   17.5027    6.5412 H   0  0  0  0  0  0  0  0  0  0  0  0
   17.3725   17.8502    4.8233 H   0  0  0  0  0  0  0  0  0  0  0  0
   16.8499   15.2389    6.3313 H   0  0  0  0  0  0  0  0  0  0  0  0
   15.6277   16.4931    5.8846 H   0  0  0  0  0  0  0  0  0  0  0  0
   16.0984   16.1053    3.4866 H   0  0  0  0  0  0  0  0  0  0  0  0
   17.9898   13.9347    4.4811 H   0  0  0  0  0  0  0  0  0  0  0  0
   17.5584   14.3086    2.7647 H   0  0  0  0  0  0  0  0  0  0  0  0
   19.7537   15.2855    3.4206 H   0  0  0  0  0  0  0  0  0  0  0  0
   18.5316   16.5416    2.9761 H   0  0  0  0  0  0  0  0  0  0  0  0
   15.4384   13.8567    5.1474 H   0  0  0  0  0  0  0  0  0  0  0  0
   13.5776   15.1388    5.4057 H   0  0  0  0  0  0  0  0  0  0  0  0
   13.8894   15.9855    3.8525 H   0  0  0  0  0  0  0  0  0  0  0  0
   13.1112   14.3665    3.8525 H   0  0  0  0  0  0  0  0  0  0  0  0
   15.1871   12.2711    3.7095 H   0  0  0  0  0  0  0  0  0  0  0  0
   14.3098   13.3663    2.5881 H   0  0  0  0  0  0  0  0  0  0  0  0
   16.1058   13.3318    2.5881 H   0  0  0  0  0  0  0  0  0  0  0  0
   19.7885   18.7034    6.8728 H   0  0  0  0  0  0  0  0  0  0  0  0
   20.3984   19.6149    5.4501 H   0  0  0  0  0  0  0  0  0  0  0  0
   18.7235   18.9656    5.4501 H   0  0  0  0  0  0  0  0  0  0  0  0
   21.7988   18.1893    3.8004 H   0  0  0  0  0  0  0  0  0  0  0  0
   20.8830   16.7662    3.1982 H   0  0  0  0  0  0  0  0  0  0  0  0
   20.1186   18.3917    3.1982 H   0  0  0  0  0  0  0  0  0  0  0  0
   22.3183   17.4813    5.9349 H   0  0  0  0  0  0  0  0  0  0  0  0
   21.0185   16.8952    7.1037 H   0  0  0  0  0  0  0  0  0  0  0  0
   21.9046   14.9492    6.7107 H   0  0  0  0  0  0  0  0  0  0  0  0
   21.0265   14.9894    5.2767 H   0  0  0  0  0  0  0  0  0  0  0  0
   22.6563   15.4049    5.2767 H   0  0  0  0  0  0  0  0  0  0  0  0
  2  1  1  0
  3  2  1  0
  4  3  1  0
  5  4  1  0
  6  5  1  0
  6  1  1  0
  7  4  1  0
  8  7  1  0
  9  7  1  0
 10  1  1  0
 11 10  1  0
 12 10  1  0
 13 10  1  0
 14 13  1  0
  1 15  1  0
  2 16  1  0
  2 17  1  0
  3 18  1  0
  3 19  1  0
  4 20  1  0
  5 21  1  0
  5 22  1  0
  6 23  1  0
  6 24  1  0
  7 25  1  0
  8 26  1  0
  8 27  1  0
  8 28  1  0
  9 29  1  0
  9 30  1  0
  9 31  1  0
 11 32  1  0
 11 33  1  0
 11 34  1  0
 12 35  1  0
 12 36  1  0
 12 37  1  0
 13 38  1  0
 13 39  1  0
 14 40  1  0
 14 41  1  0
 14 42  1  0
M  CHG  3   1   1   7   1  14   1
M  END
$$$$
=
     RDKit          3D

 34 36  0  0  0  0  0  0  0  0999 V2000
   18.4010   14.1370    3.7370 C   0  0  0  0  0  0  0  0  0  0  0  0
   19.6770   14.6670    3.7290 N   0  0  0  0  0  0  0  0  0  0  0  0
   19.5970   15.8310    4.3620 C   0  0  0  0  0  0  0  0  0  0  0  0
   18.2910   16.0960    4.7560 N   0  0  0  0  0  0  0  0  0  0  0  0
   17.5300   14.9960    4.3660 C   0  0  0  0  0  0  0  0  0  0  0  0
   16.1400   15.0030    4.6770 C   0  0  0  0  0  0  0  0  0  0  0  0
   15.6110   16.0690    5.3080 C   0  0  0  0  0  0  0  0  0  0  0  0
   16.4230   17.2170    5.6800 C   0  0  0  0  0  0  0  0  0  0  0  0
   17.7360   17.2050    5.3980 C   0  0  0  0  0  0  0  0  0  0  0  0
   20.7330   16.7190    4.6000 C   0  0  0  0  0  0  0  0  0  0  0  0
   21.0070   17.7860    3.7350 C   0  0  0  0  0  0  0  0  0  0  0  0
   22.0880   18.6350    3.9830 C   0  0  0  0  0  0  0  0  0  0  0  0
   22.8960   18.4260    5.0990 C   0  0  0  0  0  0  0  0  0  0  0  0
   22.6250   17.3730    5.9710 C   0  0  0  0  0  0  0  0  0  0  0  0
   21.5440   16.5240    5.7260 C   0  0  0  0  0  0  0  0  0  0  0  0
   18.1560   12.7950    3.1330 C   0  0  0  0  0  0  0  0  0  0  0  0
   16.8690   12.7500    2.3020 C   0  0  0  0  0  0  0  0  0  0  0  0
   15.7640   12.1160    3.0730 N   0  0  0  0  0  4  0  0  0  0  0  0
   15.5052   14.1469    4.4047 H   0  0  0  0  0  0  0  0  0  0  0  0
   14.5375   16.0714    5.5481 H   0  0  0  0  0  0  0  0  0  0  0  0
   15.9684   18.0822    6.1848 H   0  0  0  0  0  0  0  0  0  0  0  0
   18.3693   18.0621    5.6706 H   0  0  0  0  0  0  0  0  0  0  0  0
   20.3678   17.9562    2.8561 H   0  0  0  0  0  0  0  0  0  0  0  0
   22.3015   19.4684    3.2976 H   0  0  0  0  0  0  0  0  0  0  0  0
   23.7490   19.0931    5.2920 H   0  0  0  0  0  0  0  0  0  0  0  0
   23.2629   17.2108    6.8524 H   0  0  0  0  0  0  0  0  0  0  0  0
   21.3280   15.6983    6.4200 H   0  0  0  0  0  0  0  0  0  0  0  0
   19.0053   12.5413    2.4816 H   0  0  0  0  0  0  0  0  0  0  0  0
   18.0471   12.0735    3.9561 H   0  0  0  0  0  0  0  0  0  0  0  0
   16.5780   13.7758    2.0319 H   0  0  0  0  0  0  0  0  0  0  0  0
   17.0545   12.1538    1.3964 H   0  0  0  0  0  0  0  0  0  0  0  0
   15.9453   12.2200    4.0816 H   0  0  0  0  0  0  0  0  0  0  0  0
   14.8726   12.5742    2.8354 H   0  0  0  0  0  0  0  0  0  0  0  0
   15.7097   11.1153    2.8354 H   0  0  0  0  0  0  0  0  0  0  0  0
  2  1  1  0
  3  2  2  0
  4  3  1  0
  5  4  1  0
  5  1  2  0
  6  5  1  0
  7  6  2  0
  8  7  1  0
  9  4  1  0
  9  8  2  0
 10  3  1  0
 11 10  2  0
 12 11  1  0
 13 12  2  0
 14 13  1  0
 15 10  1  0
 15 14  2  0
 16  1  1  0
 17 16  1  0
 18 17  1  0
  6 19  1  0
  7 20  1  0
  8 21  1  0
  9 22  1  0
 11 23  1  0
 12 24  1  0
 13 25  1  0
 14 26  1  0
 15 27  1  0
 16 28  1  0
 16 29  1  0
 17 30  1  0
 17 31  1  0
 18 32  1  0
 18 33  1  0
 18 34  1  0
M  CHG  1  18   1
M  END
$$$$
=
     RDKit          3D

 16 15  0  0  0  0  0  0  0  0999 V2000
   21.1500   18.4830    5.1640 C   0  0  0  0  0  0  0  0  0  0  0  0
   22.1310   17.3130    5.1040 C   0  0  0  0  0  0  0  0  0  0  0  0
   20.7680   15.0040    7.0100 N   0  0  0  0  0  2  0  0  0  0  0  0
   21.4860   15.8510    6.7590 N   0  0  0  0  0  4  0  0  0  0  0  0
   22.2670   16.7750    6.4580 N   0  0  0  0  0  0  0  0  0  0  0  0
   19.7880   18.1600    4.5690 C   0  0  0  0  0  0  0  0  0  0  0  0
   19.0790   17.1530    5.3980 N   0  0  0  0  0  4  0  0  0  0  0  0
   21.0116   18.7684    6.2173 H   0  0  0  0  0  0  0  0  0  0  0  0
   21.5808   19.2991    4.5654 H   0  0  0  0  0  0  0  0  0  0  0  0
   21.7450   16.5350    4.4290 H   0  0  0  0  0  0  0  0  0  0  0  0
   23.1070   17.6484    4.7234 H   0  0  0  0  0  0  0  0  0  0  0  0
   19.1861   19.0796    4.5245 H   0  0  0  0  0  0  0  0  0  0  0  0
   19.9317   17.7488    3.5589 H   0  0  0  0  0  0  0  0  0  0  0  0
   19.2272   17.3635    6.3953 H   0  0  0  0  0  0  0  0  0  0  0  0
   18.0713   17.1826    5.1869 H   0  0  0  0  0  0  0  0  0  0  0  0
   19.4466   16.2143    5.1869 H   0  0  0  0  0  0  0  0  0  0  0  0
  2  1  1  0
  4  3  2  0
  5  4  2  0
  5  2  1  0
  6  1  1  0
  7  6  1  0
  1  8  1  0
  1  9  1  0
  2 10  1  0
  2 11  1  0
  6 12  1  0
  6 13  1  0
  7 14  1  0
  7 15  1  0
  7 16  1  0
M  CHG  3   3  -1   4   1   7   1
M  END
$$$$
=
     RDKit          3D

 45 46  0  0  0  0  0  0  0  0999 V2000
   27.3640   25.8560   16.1520 O   0  0  0  0  0  0  0  0  0  0  0  0
   27.6700   26.2320   15.0280 C   0  0  0  0  0  0  0  0  0  0  0  0
   28.2980   25.4110   14.0880 N   0  0  0  0  0  0  0  0  0  0  0  0
   28.7070   24.0860   14.5010 C   0  0  0  0  0  0  0  0  0  0  0  0
   30.0310   23.8790   15.1940 C   0  0  0  0  0  0  0  0  0  0  0  0
   29.8100   23.3080   13.8290 C   0  0  0  0  0  0  0  0  0  0  0  0
   28.5200   25.8240   12.7000 C   0  0  0  0  0  0  0  0  0  0  0  0
   27.4300   25.3640   11.7020 C   0  0  0  0  0  0  0  0  0  0  0  0
   26.0020   25.4640   12.2530 C   0  0  0  0  0  0  0  0  0  0  0  0
   24.9400   25.1430   11.2050 C   0  0  0  0  0  0  0  0  0  0  0  0
   25.4270   24.1260   10.2260 N   0  0  0  0  0  4  0  0  0  0  0  0
   26.4450   23.1860   10.7660 C   0  0  0  0  0  0  0  0  0  0  0  0
   27.7070   23.9640   11.1150 C   0  0  0  0  0  0  0  0  0  0  0  0
   27.4110   27.4740   14.5410 O   0  0  0  0  0  0  0  0  0  0  0  0
   28.1590   28.6290   15.0050 C   0  0  0  0  0  0  0  0  0  0  0  0
   29.5700   28.2370   15.4590 C   0  0  0  0  0  0  0  0  0  0  0  0
   28.2770   29.5340   13.7680 C   0  0  0  0  0  0  0  0  0  0  0  0
   27.3920   29.3870   16.0920 C   0  0  0  0  0  0  0  0  0  0  0  0
   27.6491   23.8766   14.7178 H   0  0  0  0  0  0  0  0  0  0  0  0
   30.7183   24.7270   15.3301 H   0  0  0  0  0  0  0  0  0  0  0  0
   30.3429   23.4690   16.1659 H   0  0  0  0  0  0  0  0  0  0  0  0
   30.3353   23.7366   12.9628 H   0  0  0  0  0  0  0  0  0  0  0  0
   29.8928   22.3052   13.3845 H   0  0  0  0  0  0  0  0  0  0  0  0
   28.5661   26.9227   12.6734 H   0  0  0  0  0  0  0  0  0  0  0  0
   29.4553   25.3416   12.3800 H   0  0  0  0  0  0  0  0  0  0  0  0
   27.4927   26.0866   10.8750 H   0  0  0  0  0  0  0  0  0  0  0  0
   25.8971   24.7557   13.0881 H   0  0  0  0  0  0  0  0  0  0  0  0
   25.8440   26.5032   12.5771 H   0  0  0  0  0  0  0  0  0  0  0  0
   24.0450   24.7520   11.7112 H   0  0  0  0  0  0  0  0  0  0  0  0
   24.7069   26.0670   10.6556 H   0  0  0  0  0  0  0  0  0  0  0  0
   24.6180   23.5746    9.9061 H   0  0  0  0  0  0  0  0  0  0  0  0
   25.8855   24.6482    9.4657 H   0  0  0  0  0  0  0  0  0  0  0  0
   26.0521   22.6970   11.6696 H   0  0  0  0  0  0  0  0  0  0  0  0
   26.6788   22.4200   10.0119 H   0  0  0  0  0  0  0  0  0  0  0  0
   28.2790   23.3843   11.8544 H   0  0  0  0  0  0  0  0  0  0  0  0
   28.2627   24.1126   10.1774 H   0  0  0  0  0  0  0  0  0  0  0  0
   29.6115   28.2255   16.5582 H   0  0  0  0  0  0  0  0  0  0  0  0
   29.8150   27.2368   15.0723 H   0  0  0  0  0  0  0  0  0  0  0  0
   30.2958   28.9675   15.0723 H   0  0  0  0  0  0  0  0  0  0  0  0
   28.4130   30.5774   14.0887 H   0  0  0  0  0  0  0  0  0  0  0  0
   29.1418   29.2200   13.1651 H   0  0  0  0  0  0  0  0  0  0  0  0
   27.3606   29.4522   13.1651 H   0  0  0  0  0  0  0  0  0  0  0  0
   27.7320   29.0510   17.0827 H   0  0  0  0  0  0  0  0  0  0  0  0
   27.5778   30.4661   15.9871 H   0  0  0  0  0  0  0  0  0  0  0  0
   26.3152   29.1885   15.9871 H   0  0  0  0  0  0  0  0  0  0  0  0
  2  1  2  0
  3  2  1  0
  4  3  1  0
  5  4  1  0
  6  5  1  0
  6  4  1  0
  7  3  1  0
  8  7  1  0
  9  8  1  0
 10  9  1  0
 11 10  1  0
 12 11  1  0
 13 12  1  0
 13  8  1  0
 14  2  1  0
 15 14  1  0
 16 15  1  0
 17 15  1  0
 18 15  1  0
  4 19  1  0
  5 20  1  0
  5 21  1  0
  6 22  1  0
  6 23  1  0
  7 24  1  0
  7 25  1  0
  8 26  1  0
  9 27  1  0
  9 28  1  0
 10 29  1  0
 10 30  1  0
 11 31  1  0
 11 32  1  0
 12 33  1  0
 12 34  1  0
 13 35  1  0
 13 36  1  0
 16 37  1  0
 16 38  1  0
 16 39  1  0
 17 40  1  0
 17 41  1  0
 17 42  1  0
 18 43  1  0
 18 44  1  0
 18 45  1  0
M  CHG  1  11   1
M  END
$$$$
=
     RDKit          3D

 34 36  0  0  0  0  0  0  0  0999 V2000
   15.4590   11.8990    2.0500 N   0  0  0  0  0  0  0  0  0  0  0  0
   15.1150   12.9170    2.9110 C   0  0  0  0  0  0  0  0  0  0  0  0
   13.8410   13.0040    3.2840 N   0  0  0  0  0  0  0  0  0  0  0  0
   13.5120   14.0040    4.1380 C   0  0  0  0  0  0  0  0  0  0  0  0
   14.4580   14.8960    4.6130 C   0  0  0  0  0  0  0  0  0  0  0  0
   15.7600   14.7130    4.1910 C   0  0  0  0  0  0  0  0  0  0  0  0
   16.0890   13.7200    3.3370 N   0  0  0  0  0  0  0  0  0  0  0  0
   16.8760   15.5820    4.6210 C   0  0  0  0  0  0  0  0  0  0  0  0
   16.6340   16.7220    5.4090 C   0  0  0  0  0  0  0  0  0  0  0  0
   17.6750   17.5620    5.8170 C   0  0  0  0  0  0  0  0  0  0  0  0
   18.9890   17.2910    5.4400 C   0  0  0  0  0  0  0  0  0  0  0  0
   19.2630   16.1380    4.6950 C   0  0  0  0  0  0  0  0  0  0  0  0
   18.2120   15.3160    4.2670 C   0  0  0  0  0  0  0  0  0  0  0  0
   20.5120   15.7170    4.3110 O   0  0  0  0  0  0  0  0  0  0  0  0
   21.5300   15.9980    5.2730 C   0  0  0  0  0  0  0  0  0  0  0  0
   22.0790   17.4030    5.0970 C   0  0  0  0  0  0  0  0  0  0  0  0
   20.9680   18.4230    4.9140 C   0  0  0  0  0  0  0  0  0  0  0  0
   19.9160   18.2110    5.8570 O   0  0  0  0  0  0  0  0  0  0  0  0
   12.0640   14.1760    4.5580 C   0  0  0  0  0  0  0  0  0  0  0  0
   11.6970   15.4910    4.6340 F   0  0  0  0  0  0  0  0  0  0  0  0
   11.7660   13.6440    5.7760 F   0  0  0  0  0  0  0  0  0  0  0  0
   11.1930   13.6090    3.6740 F   0  0  0  0  0  0  0  0  0  0  0  0
   16.4350   11.7969    1.7371 H   0  0  0  0  0  0  0  0  0  0  0  0
   14.7403   11.2397    1.7188 H   0  0  0  0  0  0  0  0  0  0  0  0
   14.1848   15.7139    5.2960 H   0  0  0  0  0  0  0  0  0  0  0  0
   15.6029   16.9579    5.7110 H   0  0  0  0  0  0  0  0  0  0  0  0
   17.4553   18.4420    6.4393 H   0  0  0  0  0  0  0  0  0  0  0  0
   18.4366   14.4413    3.6389 H   0  0  0  0  0  0  0  0  0  0  0  0
   21.1052   15.9027    6.2832 H   0  0  0  0  0  0  0  0  0  0  0  0
   22.3526   15.2820    5.1290 H   0  0  0  0  0  0  0  0  0  0  0  0
   22.6651   17.6707    5.9885 H   0  0  0  0  0  0  0  0  0  0  0  0
   22.7066   17.4146    4.1937 H   0  0  0  0  0  0  0  0  0  0  0  0
   21.3802   19.4329    5.0563 H   0  0  0  0  0  0  0  0  0  0  0  0
   20.5561   18.3134    3.8999 H   0  0  0  0  0  0  0  0  0  0  0  0
  2  1  1  0
  3  2  2  0
  4  3  1  0
  5  4  2  0
  6  5  1  0
  7  6  2  0
  7  2  1  0
  8  6  1  0
  9  8  2  0
 10  9  1  0
 11 10  2  0
 12 11  1  0
 13 12  2  0
 13  8  1  0
 14 12  1  0
 15 14  1  0
 16 15  1  0
 17 16  1  0
 18 17  1  0
 18 11  1  0
 19  4  1  0
 20 19  1  0
 21 19  1  0
 22 19  1  0
  1 23  1  0
  1 24  1  0
  5 25  1  0
  9 26  1  0
 10 27  1  0
 13 28  1  0
 15 29  1  0
 15 30  1  0
 16 31  1  0
 16 32  1  0
 17 33  1  0
 17 34  1  0
M  END
$$$$
=
     RDKit          3D

 27 29  0  0  0  0  0  0  0  0999 V2000
   14.8770   12.9620    3.1170 C   0  0  0  0  0  0  0  0  0  0  0  0
   16.0910   13.7880    3.4620 C   0  0  0  0  0  0  0  0  0  0  0  0
   17.3860   13.3180    3.1560 C   0  0  0  0  0  0  0  0  0  0  0  0
   18.5000   14.0360    3.6110 C   0  0  0  0  0  0  0  0  0  0  0  0
   18.3610   15.2650    4.2650 C   0  0  0  0  0  0  0  0  0  0  0  0
   17.0770   15.7720    4.4720 C   0  0  0  0  0  0  0  0  0  0  0  0
   15.9450   15.0680    4.0380 C   0  0  0  0  0  0  0  0  0  0  0  0
   19.5930   15.9690    4.7050 C   0  0  0  0  0  0  0  0  0  0  0  0
   20.0830   17.0090    4.0750 N   0  0  0  0  0  0  0  0  0  0  0  0
   21.1970   17.3660    4.7590 N   0  0  0  0  0  0  0  0  0  0  0  0
   21.5820   16.6730    5.8530 C   0  0  0  0  0  0  0  0  0  0  0  0
   20.4890   15.4010    6.1520 S   0  0  0  0  0  0  0  0  0  0  0  0
   22.6700   17.1580    6.3790 N   0  0  0  0  0  0  0  0  0  0  0  0
   23.0230   18.2420    5.5740 N   0  0  0  0  0  0  0  0  0  0  0  0
   22.1240   18.3470    4.6080 C   0  0  0  0  0  0  0  0  0  0  0  0
   17.6020   12.0440    2.6020 N   0  0  0  0  0  0  0  0  0  0  0  0
   14.6900   15.6050    4.3890 N   0  0  0  0  0  0  0  0  0  0  0  0
   14.3858   12.6278    4.0427 H   0  0  0  0  0  0  0  0  0  0  0  0
   14.1747   13.5705    2.5283 H   0  0  0  0  0  0  0  0  0  0  0  0
   15.1852   12.0854    2.5283 H   0  0  0  0  0  0  0  0  0  0  0  0
   19.5071   13.6238    3.4503 H   0  0  0  0  0  0  0  0  0  0  0  0
   16.9516   16.7380    4.9831 H   0  0  0  0  0  0  0  0  0  0  0  0
   22.1273   19.1060    3.8118 H   0  0  0  0  0  0  0  0  0  0  0  0
   18.5599   11.7303    2.3899 H   0  0  0  0  0  0  0  0  0  0  0  0
   16.8024   11.4244    2.4082 H   0  0  0  0  0  0  0  0  0  0  0  0
   14.6305   16.5443    4.8073 H   0  0  0  0  0  0  0  0  0  0  0  0
   13.8323   15.0581    4.2272 H   0  0  0  0  0  0  0  0  0  0  0  0
  2  1  1  0
  3  2  2  0
  4  3  1  0
  5  4  2  0
  6  5  1  0
  7  2  1  0
  7  6  2  0
  8  5  1  0
  9  8  2  0
 10  9  1  0
 11 10  1  0
 12  8  1  0
 12 11  1  0
 13 11  2  0
 14 13  1  0
 15 10  1  0
 15 14  2  0
 16  3  1  0
 17  7  1  0
  1 18  1  0
  1 19  1  0
  1 20  1  0
  4 21  1  0
  6 22  1  0
 15 23  1  0
 16 24  1  0
 16 25  1  0
 17 26  1  0
 17 27  1  0
M  END
$$$$
=
     RDKit          3D

 40 42  0  0  0  0  0  0  0  0999 V2000
   18.9480   14.7470    4.7510 N   0  0  0  0  0  4  0  0  0  0  0  0
   21.0610   18.4020    5.6210 C   0  0  0  0  0  0  0  0  0  0  0  0
   19.5550   18.3220    5.3820 C   0  0  0  0  0  0  0  0  0  0  0  0
   19.1420   17.7570    4.0250 C   0  0  0  0  0  0  0  0  0  0  0  0
   19.9800   16.6000    3.4880 C   0  0  0  0  0  0  0  0  0  0  0  0
   20.2540   15.4430    4.4570 C   0  0  0  0  0  0  0  0  0  0  0  0
   20.9460   15.8190    5.7770 C   0  0  0  0  0  0  0  0  0  0  0  0
   21.8190   17.0690    5.6990 C   0  0  0  0  0  0  0  0  0  0  0  0
   18.1660   14.2340    3.5810 C   0  0  0  0  0  0  0  0  0  0  0  0
   16.6810   14.3310    3.7780 C   0  0  0  0  0  0  0  0  0  0  0  0
   16.1210   15.4270    4.4790 C   0  0  0  0  0  0  0  0  0  0  0  0
   14.7360   15.5450    4.6420 C   0  0  0  0  0  0  0  0  0  0  0  0
   13.9380   14.5650    4.0970 C   0  0  0  0  0  0  0  0  0  0  0  0
   14.4710   13.4970    3.4160 C   0  0  0  0  0  0  0  0  0  0  0  0
   15.8300   13.3490    3.2400 C   0  0  0  0  0  0  0  0  0  0  0  0
   13.5160   12.6460    2.9580 O   0  0  0  0  0  0  0  0  0  0  0  0
   12.3170   13.2860    3.4500 C   0  0  0  0  0  0  0  0  0  0  0  0
   12.5820   14.5190    4.1540 O   0  0  0  0  0  0  0  0  0  0  0  0
   19.1558   13.9434    5.3609 H   0  0  0  0  0  0  0  0  0  0  0  0
   18.3500   15.4723    5.1720 H   0  0  0  0  0  0  0  0  0  0  0  0
   21.4984   18.9864    4.7981 H   0  0  0  0  0  0  0  0  0  0  0  0
   21.1718   18.8560    6.6168 H   0  0  0  0  0  0  0  0  0  0  0  0
   19.1197   17.6823    6.1639 H   0  0  0  0  0  0  0  0  0  0  0  0
   19.1862   19.3580    5.4067 H   0  0  0  0  0  0  0  0  0  0  0  0
   18.1030   17.4061    4.1108 H   0  0  0  0  0  0  0  0  0  0  0  0
   19.2874   18.5797    3.3095 H   0  0  0  0  0  0  0  0  0  0  0  0
   19.4562   16.1862    2.6137 H   0  0  0  0  0  0  0  0  0  0  0  0
   20.9665   17.0340    3.2680 H   0  0  0  0  0  0  0  0  0  0  0  0
   20.9756   14.7899    3.9445 H   0  0  0  0  0  0  0  0  0  0  0  0
   20.1686   15.9894    6.5364 H   0  0  0  0  0  0  0  0  0  0  0  0
   21.6162   14.9838    6.0285 H   0  0  0  0  0  0  0  0  0  0  0  0
   22.4562   17.0936    6.5953 H   0  0  0  0  0  0  0  0  0  0  0  0
   22.3809   16.9861    4.7570 H   0  0  0  0  0  0  0  0  0  0  0  0
   18.4404   14.8208    2.6920 H   0  0  0  0  0  0  0  0  0  0  0  0
   18.4126   13.1685    3.4630 H   0  0  0  0  0  0  0  0  0  0  0  0
   16.7841   16.1964    4.9013 H   0  0  0  0  0  0  0  0  0  0  0  0
   14.2991   16.3940    5.1883 H   0  0  0  0  0  0  0  0  0  0  0  0
   16.2380   12.4860    2.6934 H   0  0  0  0  0  0  0  0  0  0  0  0
   11.6608   13.5050    2.5948 H   0  0  0  0  0  0  0  0  0  0  0  0
   11.8453   12.5950    4.1641 H   0  0  0  0  0  0  0  0  0  0  0  0
  3  2  1  0
  4  3  1  0
  5  4  1  0
  6  1  1  0
  6  5  1  0
  7  6  1  0
  8  7  1  0
  8  2  1  0
  9  1  1  0
 10  9  1  0
 11 10  2  0
 12 11  1  0
 13 12  2  0
 14 13  1  0
 15 14  2  0
 15 10  1  0
 16 14  1  0
 17 16  1  0
 18 17  1  0
 18 13  1  0
  1 19  1  0
  1 20  1  0
  2 21  1  0
  2 22  1  0
  3 23  1  0
  3 24  1  0
  4 25  1  0
  4 26  1  0
  5 27  1  0
  5 28  1  0
  6 29  1  0
  7 30  1  0
  7 31  1  0
  8 32  1  0
  8 33  1  0
  9 34  1  0
  9 35  1  0
 11 36  1  0
 12 37  1  0
 15 38  1  0
 17 39  1  0
 17 40  1  0
M  CHG  1   1   1
M  END
$$$$
=
     RDKit          3D

 23 22  0  0  0  0  0  0  0  0999 V2000
   19.2840   17.1960    3.5310 C   0  0  2  0  0  0  0  0  0  0  0  0
   19.6240   17.4770    2.0690 C   0  0  0  0  0  0  0  0  0  0  0  0
   19.7840   18.3830    4.3360 N   0  0  0  0  0  4  0  0  0  0  0  0
   21.0040   18.1630    5.1920 C   0  0  0  0  0  0  0  0  0  0  0  0
   22.2070   18.7690    4.4980 C   0  0  0  0  0  0  0  0  0  0  0  0
   19.8950   15.8420    4.0210 C   0  0  0  0  0  0  0  0  0  0  0  0
   19.2680   14.6330    3.4070 N   0  0  0  0  0  4  0  0  0  0  0  0
   18.1980   17.0809    3.6625 H   0  0  0  0  0  0  0  0  0  0  0  0
   20.4710   18.1770    2.0175 H   0  0  0  0  0  0  0  0  0  0  0  0
   19.8951   16.5359    1.5682 H   0  0  0  0  0  0  0  0  0  0  0  0
   18.7508   17.9205    1.5682 H   0  0  0  0  0  0  0  0  0  0  0  0
   20.0027   19.1392    3.6717 H   0  0  0  0  0  0  0  0  0  0  0  0
   19.0256   18.5947    5.0001 H   0  0  0  0  0  0  0  0  0  0  0  0
   20.8604   18.6452    6.1702 H   0  0  0  0  0  0  0  0  0  0  0  0
   21.1643   17.0851    5.3419 H   0  0  0  0  0  0  0  0  0  0  0  0
   22.9223   19.1293    5.2520 H   0  0  0  0  0  0  0  0  0  0  0  0
   22.6901   18.0067    3.8691 H   0  0  0  0  0  0  0  0  0  0  0  0
   21.8819   19.6109    3.8691 H   0  0  0  0  0  0  0  0  0  0  0  0
   20.9672   15.8377    3.7753 H   0  0  0  0  0  0  0  0  0  0  0  0
   19.7072   15.7821    5.1032 H   0  0  0  0  0  0  0  0  0  0  0  0
   18.9402   14.0008    4.1512 H   0  0  0  0  0  0  0  0  0  0  0  0
   18.4692   14.9195    2.8232 H   0  0  0  0  0  0  0  0  0  0  0  0
   19.9623   14.1451    2.8232 H   0  0  0  0  0  0  0  0  0  0  0  0
  2  1  1  0
  3  1  1  0
  4  3  1  0
  5  4  1  0
  6  1  1  0
  7  6  1  0
  1  8  1  6
  2  9  1  0
  2 10  1  0
  2 11  1  0
  3 12  1  0
  3 13  1  0
  4 14  1  0
  4 15  1  0
  5 16  1  0
  5 17  1  0
  5 18  1  0
  6 19  1  0
  6 20  1  0
  7 21  1  0
  7 22  1  0
  7 23  1  0
M  CHG  2   3   1   7   1
M  END
$$$$
=
     RDKit          3D

 19 19  0  0  0  0  0  0  0  0999 V2000
   21.6080   16.8030    5.3060 C   0  0  0  0  0  0  0  0  0  0  0  0
   21.8330   16.4660    6.5980 N   0  0  0  0  0  0  0  0  0  0  0  0
   21.1150   15.4670    7.1700 N   0  0  0  0  0  0  0  0  0  0  0  0
   20.1850   14.8140    6.4410 C   0  0  0  0  0  0  0  0  0  0  0  0
   19.9290   15.1120    5.1120 C   0  0  0  0  0  0  0  0  0  0  0  0
   20.6580   16.1500    4.5330 C   0  0  0  0  0  0  0  0  0  0  0  0
   18.8650   14.3850    4.3520 C   0  0  0  0  0  0  0  0  0  0  0  0
   22.4460   17.9270    4.7690 C   0  0  0  0  0  0  0  0  0  0  0  0
   23.3640   18.4880    5.8000 N   0  0  0  0  0  4  0  0  0  0  0  0
   19.6062   14.0118    6.9221 H   0  0  0  0  0  0  0  0  0  0  0  0
   20.4842   16.4446    3.4875 H   0  0  0  0  0  0  0  0  0  0  0  0
   18.1692   13.9096    5.0590 H   0  0  0  0  0  0  0  0  0  0  0  0
   18.3150   15.0970    3.7191 H   0  0  0  0  0  0  0  0  0  0  0  0
   19.3284   13.6139    3.7191 H   0  0  0  0  0  0  0  0  0  0  0  0
   23.0463   17.5505    3.9276 H   0  0  0  0  0  0  0  0  0  0  0  0
   21.7669   18.7309    4.4487 H   0  0  0  0  0  0  0  0  0  0  0  0
   23.0022   18.2669    6.7387 H   0  0  0  0  0  0  0  0  0  0  0  0
   24.3007   18.0748    5.6870 H   0  0  0  0  0  0  0  0  0  0  0  0
   23.4236   19.5100    5.6870 H   0  0  0  0  0  0  0  0  0  0  0  0
  2  1  2  0
  3  2  1  0
  4  3  2  0
  5  4  1  0
  6  5  2  0
  6  1  1  0
  7  5  1  0
  8  1  1  0
  9  8  1  0
  4 10  1  0
  6 11  1  0
  7 12  1  0
  7 13  1  0
  7 14  1  0
  8 15  1  0
  8 16  1  0
  9 17  1  0
  9 18  1  0
  9 19  1  0
M  CHG  1   9   1
M  END
$$$$
=
     RDKit          3D

 39 40  0  0  0  0  0  0  0  0999 V2000
   16.4780   15.4940    4.4190 C   0  0  2  0  0  0  0  0  0  0  0  0
   16.4510   15.8660    5.9010 C   0  0  0  0  0  0  0  0  0  0  0  0
   13.1960   12.9160    3.2320 C   0  0  0  0  0  0  0  0  0  0  0  0
   14.4980   12.6400    2.8250 C   0  0  0  0  0  0  0  0  0  0  0  0
   15.5490   13.4860    3.2040 C   0  0  0  0  0  0  0  0  0  0  0  0
   15.3140   14.6260    3.9900 C   0  0  0  0  0  0  0  0  0  0  0  0
   13.9990   14.8890    4.4010 C   0  0  0  0  0  0  0  0  0  0  0  0
   12.9550   14.0410    4.0220 C   0  0  0  0  0  0  0  0  0  0  0  0
   10.8330   12.8550    2.9460 C   0  0  0  0  0  0  0  0  0  0  0  0
   12.0850   12.1780    2.9390 O   0  0  0  0  0  0  0  0  0  0  0  0
   17.7580   14.7970    4.0970 N   0  0  0  0  0  4  0  0  0  0  0  0
   18.9060   14.9760    5.0480 C   0  0  0  0  0  0  0  0  0  0  0  0
   20.0210   15.6990    4.2830 C   0  0  2  0  0  0  0  0  0  0  0  0
   20.3200   17.0930    4.8090 C   0  0  0  0  0  0  0  0  0  0  0  0
   19.5460   17.9880    3.8710 C   0  0  0  0  0  0  0  0  0  0  0  0
   19.6430   17.2340    2.5640 C   0  0  0  0  0  0  0  0  0  0  0  0
   19.5590   15.8400    2.9170 O   0  0  0  0  0  0  0  0  0  0  0  0
   16.3937   16.4383    3.8612 H   0  0  0  0  0  0  0  0  0  0  0  0
   16.5173   14.9522    6.5097 H   0  0  0  0  0  0  0  0  0  0  0  0
   17.3039   16.5218    6.1300 H   0  0  0  0  0  0  0  0  0  0  0  0
   15.5123   16.3918    6.1300 H   0  0  0  0  0  0  0  0  0  0  0  0
   14.7027   11.7554    2.2041 H   0  0  0  0  0  0  0  0  0  0  0  0
   16.5744   13.2535    2.8807 H   0  0  0  0  0  0  0  0  0  0  0  0
   13.7880   15.7691    5.0262 H   0  0  0  0  0  0  0  0  0  0  0  0
   11.9291   14.2632    4.3508 H   0  0  0  0  0  0  0  0  0  0  0  0
   10.5150   13.0270    3.9849 H   0  0  0  0  0  0  0  0  0  0  0  0
   10.9354   13.8207    2.4293 H   0  0  0  0  0  0  0  0  0  0  0  0
   10.0810   12.2406    2.4293 H   0  0  0  0  0  0  0  0  0  0  0  0
   17.5551   13.7885    4.0455 H   0  0  0  0  0  0  0  0  0  0  0  0
   18.0769   15.2292    3.2181 H   0  0  0  0  0  0  0  0  0  0  0  0
   18.5893   15.5792    5.9116 H   0  0  0  0  0  0  0  0  0  0  0  0
   19.2574   14.0034    5.4229 H   0  0  0  0  0  0  0  0  0  0  0  0
   20.9434   15.1091    4.3892 H   0  0  0  0  0  0  0  0  0  0  0  0
   19.9676   17.2080    5.8447 H   0  0  0  0  0  0  0  0  0  0  0  0
   21.3954   17.3228    4.8360 H   0  0  0  0  0  0  0  0  0  0  0  0
   18.4999   18.0954    4.1936 H   0  0  0  0  0  0  0  0  0  0  0  0
   19.9333   19.0163    3.8192 H   0  0  0  0  0  0  0  0  0  0  0  0
   18.8137   17.5124    1.8971 H   0  0  0  0  0  0  0  0  0  0  0  0
   20.5759   17.4639    2.0284 H   0  0  0  0  0  0  0  0  0  0  0  0
  2  1  1  0
  4  3  2  0
  5  4  1  0
  6  5  2  0
  6  1  1  0
  7  6  1  0
  8  7  2  0
  8  3  1  0
 10  9  1  0
 10  3  1  0
 11  1  1  0
 12 11  1  0
 13 12  1  0
 14 13  1  0
 15 14  1  0
 16 15  1  0
 17 13  1  0
 17 16  1  0
  1 18  1  6
  2 19  1  0
  2 20  1  0
  2 21  1  0
  4 22  1  0
  5 23  1  0
  7 24  1  0
  8 25  1  0
  9 26  1  0
  9 27  1  0
  9 28  1  0
 11 29  1  0
 11 30  1  0
 12 31  1  0
 12 32  1  0
 13 33  1  6
 14 34  1  0
 14 35  1  0
 15 36  1  0
 15 37  1  0
 16 38  1  0
 16 39  1  0
M  CHG  1  11   1
M  END
$$$$
=
     RDKit          3D

 40 41  0  0  0  0  0  0  0  0999 V2000
   17.8320   15.8210    5.2880 C   0  0  0  0  0  0  0  0  0  0  0  0
   17.6760   14.9910    3.9950 C   0  0  2  0  0  0  0  0  0  0  0  0
   17.8570   16.4810    3.8880 C   0  0  2  0  0  0  0  0  0  0  0  0
   16.3660   14.2980    3.6860 C   0  0  0  0  0  0  0  0  0  0  0  0
   15.1050   14.8540    3.9720 C   0  0  0  0  0  0  0  0  0  0  0  0
   13.9240   14.1590    3.6940 C   0  0  0  0  0  0  0  0  0  0  0  0
   13.9840   12.9050    3.1060 C   0  0  0  0  0  0  0  0  0  0  0  0
   15.2060   12.3360    2.7810 C   0  0  0  0  0  0  0  0  0  0  0  0
   16.3850   13.0320    3.0630 C   0  0  0  0  0  0  0  0  0  0  0  0
   12.8560   12.2370    2.8500 F   0  0  0  0  0  0  0  0  0  0  0  0
   19.4770   17.0570    3.3110 S   0  0  0  0  0  6  0  0  0  0  0  0
   19.2270   17.6350    2.0040 O   0  0  0  0  0  0  0  0  0  0  0  0
   20.2780   15.8470    3.3610 O   0  0  0  0  0  0  0  0  0  0  0  0
   20.0590   18.2920    4.4510 C   0  0  0  0  0  0  0  0  0  0  0  0
   21.5630   18.4530    4.4320 C   0  0  0  0  0  0  0  0  0  0  0  0
   16.6160   16.2420    6.1320 C   0  0  0  0  0  0  0  0  0  0  0  0
   16.2060   15.3590    7.2530 N   0  0  0  0  0  4  0  0  0  0  0  0
   19.0590   15.5030    6.1710 C   0  0  0  0  0  0  0  0  0  0  0  0
   19.9010   14.3110    5.9530 N   0  0  0  0  0  4  0  0  0  0  0  0
   18.1933   14.1316    3.5435 H   0  0  0  0  0  0  0  0  0  0  0  0
   17.2973   17.2937    3.4019 H   0  0  0  0  0  0  0  0  0  0  0  0
   15.0474   15.8555    4.4233 H   0  0  0  0  0  0  0  0  0  0  0  0
   12.9498   14.6061    3.9412 H   0  0  0  0  0  0  0  0  0  0  0  0
   15.2473   11.3451    2.3052 H   0  0  0  0  0  0  0  0  0  0  0  0
   17.3515   12.5817    2.7926 H   0  0  0  0  0  0  0  0  0  0  0  0
   19.6000   19.2563    4.1874 H   0  0  0  0  0  0  0  0  0  0  0  0
   19.7761   17.9651    5.4625 H   0  0  0  0  0  0  0  0  0  0  0  0
   21.9405   18.4934    5.4644 H   0  0  0  0  0  0  0  0  0  0  0  0
   22.0167   17.5983    3.9089 H   0  0  0  0  0  0  0  0  0  0  0  0
   21.8255   19.3844    3.9089 H   0  0  0  0  0  0  0  0  0  0  0  0
   16.8410   17.2302    6.5595 H   0  0  0  0  0  0  0  0  0  0  0  0
   15.7693   16.2065    5.4306 H   0  0  0  0  0  0  0  0  0  0  0  0
   16.4200   15.8198    8.1490 H   0  0  0  0  0  0  0  0  0  0  0  0
   15.1940   15.1765    7.1938 H   0  0  0  0  0  0  0  0  0  0  0  0
   16.7196   14.4681    7.1938 H   0  0  0  0  0  0  0  0  0  0  0  0
   19.7296   16.3710    6.0875 H   0  0  0  0  0  0  0  0  0  0  0  0
   18.5892   15.2752    7.1392 H   0  0  0  0  0  0  0  0  0  0  0  0
   20.1797   13.9165    6.8627 H   0  0  0  0  0  0  0  0  0  0  0  0
   19.3686   13.6070    5.4221 H   0  0  0  0  0  0  0  0  0  0  0  0
   20.7424   14.5775    5.4221 H   0  0  0  0  0  0  0  0  0  0  0  0
  2  1  1  0
  3  2  1  0
  3  1  1  0
  4  2  1  0
  5  4  2  0
  6  5  1  0
  7  6  2  0
  8  7  1  0
  9  8  2  0
  9  4  1  0
 10  7  1  0
 11  3  1  0
 12 11  2  0
 13 11  2  0
 14 11  1  0
 15 14  1  0
 16  1  1  0
 17 16  1  0
 18  1  1  0
 19 18  1  0
  2 20  1  6
  3 21  1  1
  5 22  1  0
  6 23  1  0
  8 24  1  0
  9 25  1  0
 14 26  1  0
 14 27  1  0
 15 28  1  0
 15 29  1  0
 15 30  1  0
 16 31  1  0
 16 32  1  0
 17 33  1  0
 17 34  1  0
 17 35  1  0
 18 36  1  0
 18 37  1  0
 19 38  1  0
 19 39  1  0
 19 40  1  0
M  CHG  2  17   1  19   1
M  END
$$$$
=
     RDKit          3D

 51 53  0  0  0  0  0  0  0  0999 V2000
   10.7340   13.9120    4.1010 C   0  0  0  0  0  0  0  0  0  0  0  0
   11.8430   14.7020    4.4230 C   0  0  0  0  0  0  0  0  0  0  0  0
   13.1260   14.3800    3.9980 C   0  0  0  0  0  0  0  0  0  0  0  0
   14.1340   15.1840    4.3460 N   0  0  0  0  0  0  0  0  0  0  0  0
   15.3770   14.8840    3.9400 C   0  0  0  0  0  0  0  0  0  0  0  0
   15.6430   13.8040    3.1950 N   0  0  0  0  0  0  0  0  0  0  0  0
   14.6340   12.9970    2.8490 C   0  0  0  0  0  0  0  0  0  0  0  0
   13.3090   13.2340    3.2280 C   0  0  0  0  0  0  0  0  0  0  0  0
   12.1960   12.4210    2.8930 C   0  0  0  0  0  0  0  0  0  0  0  0
   10.9120   12.7550    3.3270 C   0  0  0  0  0  0  0  0  0  0  0  0
   16.4200   15.7420    4.2820 N   0  0  0  0  0  0  0  0  0  0  0  0
   16.1390   16.6620    5.3730 C   0  0  0  0  0  0  0  0  0  0  0  0
   14.9860   11.8800    2.0690 N   0  0  0  0  0  0  0  0  0  0  0  0
    9.1680   14.1800    5.8890 C   0  0  0  0  0  0  0  0  0  0  0  0
    9.4460   14.1830    4.4950 O   0  0  0  0  0  0  0  0  0  0  0  0
    9.7830   12.0290    3.0520 O   0  0  0  0  0  0  0  0  0  0  0  0
    9.4410   11.8150    1.6900 C   0  0  0  0  0  0  0  0  0  0  0  0
   17.7740   15.1920    4.1970 C   0  0  0  0  0  0  0  0  0  0  0  0
   18.2190   14.6120    5.5440 C   0  0  0  0  0  0  0  0  0  0  0  0
   19.7200   14.3410    5.6180 C   0  0  0  0  0  0  0  0  0  0  0  0
   20.5020   15.4990    5.2320 N   0  0  0  0  0  0  0  0  0  0  0  0
   21.2500   16.2540    6.1090 C   0  0  0  0  0  0  0  0  0  0  0  0
   21.3340   15.9990    7.3070 O   0  0  0  0  0  0  0  0  0  0  0  0
   21.9300   17.3710    5.4850 C   0  0  0  0  0  0  0  0  0  0  0  0
   21.5660   18.1800    4.4260 C   0  0  0  0  0  0  0  0  0  0  0  0
   22.6140   19.1140    4.2460 C   0  0  0  0  0  0  0  0  0  0  0  0
   23.5550   18.8220    5.2040 C   0  0  0  0  0  0  0  0  0  0  0  0
   23.1550   17.7690    5.9620 O   0  0  0  0  0  0  0  0  0  0  0  0
   11.6945   15.6062    5.0316 H   0  0  0  0  0  0  0  0  0  0  0  0
   12.3464   11.5171    2.2844 H   0  0  0  0  0  0  0  0  0  0  0  0
   16.2954   16.1500    6.3339 H   0  0  0  0  0  0  0  0  0  0  0  0
   16.8135   17.5283    5.3051 H   0  0  0  0  0  0  0  0  0  0  0  0
   15.0956   17.0035    5.3051 H   0  0  0  0  0  0  0  0  0  0  0  0
   14.2607   11.2147    1.7654 H   0  0  0  0  0  0  0  0  0  0  0  0
   15.9690   11.7277    1.8017 H   0  0  0  0  0  0  0  0  0  0  0  0
   10.1133   14.1902    6.4514 H   0  0  0  0  0  0  0  0  0  0  0  0
    8.5781   15.0718    6.1472 H   0  0  0  0  0  0  0  0  0  0  0  0
    8.5975   13.2756    6.1472 H   0  0  0  0  0  0  0  0  0  0  0  0
    8.5098   11.2323    1.6330 H   0  0  0  0  0  0  0  0  0  0  0  0
    9.2978   12.7849    1.1912 H   0  0  0  0  0  0  0  0  0  0  0  0
   10.2506   11.2621    1.1912 H   0  0  0  0  0  0  0  0  0  0  0  0
   17.7911   14.3948    3.4392 H   0  0  0  0  0  0  0  0  0  0  0  0
   18.4640   16.0029    3.9205 H   0  0  0  0  0  0  0  0  0  0  0  0
   17.9537   15.3268    6.3368 H   0  0  0  0  0  0  0  0  0  0  0  0
   17.7068   13.6465    5.6685 H   0  0  0  0  0  0  0  0  0  0  0  0
   19.9803   14.0652    6.6505 H   0  0  0  0  0  0  0  0  0  0  0  0
   19.9524   13.5258    4.9169 H   0  0  0  0  0  0  0  0  0  0  0  0
   20.4983   15.7748    4.2396 H   0  0  0  0  0  0  0  0  0  0  0  0
   20.6400   18.1114    3.8363 H   0  0  0  0  0  0  0  0  0  0  0  0
   22.6650   19.9127    3.4914 H   0  0  0  0  0  0  0  0  0  0  0  0
   24.5015   19.3662    5.3382 H   0  0  0  0  0  0  0  0  0  0  0  0
  2  1  2  0
  3  2  1  0
  4  3  2  0
  5  4  1  0
  6  5  2  0
  7  6  1  0
  8  7  2  0
  8  3  1  0
  9  8  1  0
 10  1  1  0
 10  9  2  0
 11  5  1  0
 12 11  1  0
 13  7  1  0
 15  1  1  0
 15 14  1  0
 16 10  1  0
 17 16  1  0
 18 11  1  0
 19 18  1  0
 20 19  1  0
 21 20  1  0
 22 21  1  0
 23 22  2  0
 24 22  1  0
 25 24  2  0
 26 25  1  0
 27 26  2  0
 28 27  1  0
 28 24  1  0
  2 29  1  0
  9 30  1  0
 12 31  1  0
 12 32  1  0
 12 33  1  0
 13 34  1  0
 13 35  1  0
 14 36  1  0
 14 37  1  0
 14 38  1  0
 17 39  1  0
 17 40  1  0
 17 41  1  0
 18 42  1  0
 18 43  1  0
 19 44  1  0
 19 45  1  0
 20 46  1  0
 20 47  1  0
 21 48  1  0
 25 49  1  0
 26 50  1  0
 27 51  1  0
M  END
$$$$
=
     RDKit          3D

 18 19  0  0  0  0  0  0  0  0999 V2000
   19.5890   15.8190    3.2250 N   0  0  0  0  0  0  0  0  0  0  0  0
   20.2770   15.9430    4.4330 C   0  0  0  0  0  0  0  0  0  0  0  0
   20.0940   14.9960    5.3590 N   0  0  0  0  0  0  0  0  0  0  0  0
   20.7710   15.1310    6.5190 C   0  0  0  0  0  0  0  0  0  0  0  0
   21.6160   16.1210    6.8480 N   0  0  0  0  0  0  0  0  0  0  0  0
   21.7490   17.0400    5.9000 C   0  0  0  0  0  0  0  0  0  0  0  0
   21.1240   16.9900    4.6720 C   0  0  0  0  0  0  0  0  0  0  0  0
   21.5530   18.1460    3.8470 C   0  0  0  0  0  0  0  0  0  0  0  0
   22.7950   18.5890    4.6500 C   0  0  0  0  0  0  0  0  0  0  0  0
   22.5520   18.2050    6.0380 N   0  0  0  0  0  0  0  0  0  0  0  0
   19.7069   16.5307    2.4898 H   0  0  0  0  0  0  0  0  0  0  0  0
   18.9634   15.0158    3.0687 H   0  0  0  0  0  0  0  0  0  0  0  0
   20.6137   14.3471    7.2745 H   0  0  0  0  0  0  0  0  0  0  0  0
   21.8140   17.8437    2.8221 H   0  0  0  0  0  0  0  0  0  0  0  0
   20.7895   18.9242    3.7005 H   0  0  0  0  0  0  0  0  0  0  0  0
   23.6943   18.0836    4.2680 H   0  0  0  0  0  0  0  0  0  0  0  0
   22.9597   19.6729    4.5608 H   0  0  0  0  0  0  0  0  0  0  0  0
   22.8800   18.6631    6.9002 H   0  0  0  0  0  0  0  0  0  0  0  0
  2  1  1  0
  3  2  2  0
  4  3  1  0
  5  4  2  0
  6  5  1  0
  7  2  1  0
  7  6  2  0
  8  7  1  0
  9  8  1  0
 10  6  1  0
 10  9  1  0
  1 11  1  0
  1 12  1  0
  4 13  1  0
  8 14  1  0
  8 15  1  0
  9 16  1  0
  9 17  1  0
 10 18  1  0
M  END
$$$$
=
     RDKit          3D

 43 44  0  0  0  0  0  0  0  0999 V2000
   28.0810   24.6560   12.9100 C   0  0  0  0  0  0  0  0  0  0  0  0
   28.9170   24.1310   14.1250 C   0  0  0  0  0  0  0  0  0  0  0  0
   29.1220   25.5480   14.4130 N   0  0  0  0  0  0  0  0  0  0  0  0
   29.0110   25.9170   13.0070 C   0  0  0  0  0  0  0  0  0  0  0  0
   29.9690   26.0520   15.3660 C   0  0  0  0  0  0  0  0  0  0  0  0
   30.2660   25.4130   16.3630 O   0  0  0  0  0  0  0  0  0  0  0  0
   26.5740   24.9810   13.3190 N   0  0  0  0  0  4  0  0  0  0  0  0
   25.9310   25.8420   12.2290 C   0  0  0  0  0  0  0  0  0  0  0  0
   24.4330   26.0960   12.5470 C   0  0  0  0  0  0  0  0  0  0  0  0
   23.7020   24.8010   12.8080 N   0  0  0  0  0  4  0  0  0  0  0  0
   24.3310   23.9350   13.8750 C   0  0  0  0  0  0  0  0  0  0  0  0
   25.8280   23.6650   13.5660 C   0  0  0  0  0  0  0  0  0  0  0  0
   28.1140   23.3040   10.6910 N   0  0  0  0  0  0  0  0  0  0  0  0
   28.2010   23.8860   11.6870 C   0  0  0  0  0  0  0  0  0  0  0  0
   30.3590   27.3040   15.0480 O   0  0  0  0  0  0  0  0  0  0  0  0
   29.7000   28.4590   15.6410 C   0  0  0  0  0  0  0  0  0  0  0  0
   30.8490   29.3700   16.1000 C   0  0  0  0  0  0  0  0  0  0  0  0
   28.8600   29.2100   14.6030 C   0  0  0  0  0  0  0  0  0  0  0  0
   28.8720   28.0560   16.8660 C   0  0  0  0  0  0  0  0  0  0  0  0
   28.3465   23.5746   14.8832 H   0  0  0  0  0  0  0  0  0  0  0  0
   29.7407   23.4088   14.0253 H   0  0  0  0  0  0  0  0  0  0  0  0
   28.5189   26.8810   12.8108 H   0  0  0  0  0  0  0  0  0  0  0  0
   29.8807   26.0794   12.3533 H   0  0  0  0  0  0  0  0  0  0  0  0
   26.5328   25.5227   14.1941 H   0  0  0  0  0  0  0  0  0  0  0  0
   26.4572   26.8063   12.1725 H   0  0  0  0  0  0  0  0  0  0  0  0
   26.0049   25.3116   11.2681 H   0  0  0  0  0  0  0  0  0  0  0  0
   24.3592   26.7355   13.4389 H   0  0  0  0  0  0  0  0  0  0  0  0
   23.9712   26.5870   11.6777 H   0  0  0  0  0  0  0  0  0  0  0  0
   22.7408   25.0268   13.1012 H   0  0  0  0  0  0  0  0  0  0  0  0
   23.7372   24.2610   11.9316 H   0  0  0  0  0  0  0  0  0  0  0  0
   24.2512   24.4463   14.8457 H   0  0  0  0  0  0  0  0  0  0  0  0
   23.8005   22.9717   13.9003 H   0  0  0  0  0  0  0  0  0  0  0  0
   26.2854   23.1451   14.4207 H   0  0  0  0  0  0  0  0  0  0  0  0
   25.8967   23.0433   12.6611 H   0  0  0  0  0  0  0  0  0  0  0  0
   30.8804   29.3949   17.1993 H   0  0  0  0  0  0  0  0  0  0  0  0
   31.8026   28.9799   15.7147 H   0  0  0  0  0  0  0  0  0  0  0  0
   30.6866   30.3874   15.7147 H   0  0  0  0  0  0  0  0  0  0  0  0
   28.1351   29.8581   15.1173 H   0  0  0  0  0  0  0  0  0  0  0  0
   29.5195   29.8251   13.9732 H   0  0  0  0  0  0  0  0  0  0  0  0
   28.3223   28.4860   13.9732 H   0  0  0  0  0  0  0  0  0  0  0  0
   29.4193   28.3224   17.7823 H   0  0  0  0  0  0  0  0  0  0  0  0
   27.9081   28.5858   16.8475 H   0  0  0  0  0  0  0  0  0  0  0  0
   28.6943   26.9706   16.8475 H   0  0  0  0  0  0  0  0  0  0  0  0
  2  1  1  0
  3  2  1  0
  4  3  1  0
  4  1  1  0
  5  3  1  0
  6  5  2  0
  7  1  1  0
  8  7  1  0
  9  8  1  0
 10  9  1  0
 11 10  1  0
 12 11  1  0
 12  7  1  0
 14 13  3  0
 14  1  1  0
 15  5  1  0
 16 15  1  0
 17 16  1  0
 18 16  1  0
 19 16  1  0
  2 20  1  0
  2 21  1  0
  4 22  1  0
  4 23  1  0
  7 24  1  0
  8 25  1  0
  8 26  1  0
  9 27  1  0
  9 28  1  0
 10 29  1  0
 10 30  1  0
 11 31  1  0
 11 32  1  0
 12 33  1  0
 12 34  1  0
 17 35  1  0
 17 36  1  0
 17 37  1  0
 18 38  1  0
 18 39  1  0
 18 40  1  0
 19 41  1  0
 19 42  1  0
 19 43  1  0
M  CHG  2   7   1  10   1
M  END
$$$$
=
     RDKit          3D

 24 24  0  0  0  0  0  0  0  0999 V2000
   17.7710   15.7360    4.8970 C   0  0  1  0  0  0  0  0  0  0  0  0
   16.7130   16.1970    5.9160 C   0  0  0  0  0  0  0  0  0  0  0  0
   15.5160   15.2560    5.9830 C   0  0  0  0  0  0  0  0  0  0  0  0
   14.8270   15.0920    4.6310 C   0  0  0  0  0  0  0  0  0  0  0  0
   15.8210   15.1110    3.5120 N   0  0  0  0  0  4  0  0  0  0  0  0
   17.2100   14.7040    3.9040 C   0  0  0  0  0  0  0  0  0  0  0  0
   18.1990   16.8840    4.1230 O   0  0  0  0  0  0  0  0  0  0  0  0
   19.8050   16.3090    2.6120 O   0  0  0  0  0  0  0  0  0  0  0  0
   19.5060   16.8500    3.6700 C   0  0  0  0  0  0  0  0  0  0  0  0
   20.4620   17.5500    4.6520 C   0  0  0  0  0  0  0  0  0  0  0  0
   19.5930   18.7380    5.6400 Cl  0  0  0  0  0  0  0  0  0  0  0  0
   21.1970   16.3000    5.6930 Cl  0  0  0  0  0  0  0  0  0  0  0  0
   21.7330   18.3630    3.6930 Cl  0  0  0  0  0  0  0  0  0  0  0  0
   18.5961   15.2773    5.4617 H   0  0  0  0  0  0  0  0  0  0  0  0
   17.1795   16.2453    6.9110 H   0  0  0  0  0  0  0  0  0  0  0  0
   16.3453   17.1820    5.5926 H   0  0  0  0  0  0  0  0  0  0  0  0
   15.8613   14.2693    6.3253 H   0  0  0  0  0  0  0  0  0  0  0  0
   14.7857   15.6923    6.6803 H   0  0  0  0  0  0  0  0  0  0  0  0
   14.2885   14.1329    4.6165 H   0  0  0  0  0  0  0  0  0  0  0  0
   14.1288   15.9305    4.4915 H   0  0  0  0  0  0  0  0  0  0  0  0
   15.4921   14.4663    2.7791 H   0  0  0  0  0  0  0  0  0  0  0  0
   15.8823   16.0883    3.1926 H   0  0  0  0  0  0  0  0  0  0  0  0
   17.1839   13.7118    4.3782 H   0  0  0  0  0  0  0  0  0  0  0  0
   17.8510   14.6598    3.0111 H   0  0  0  0  0  0  0  0  0  0  0  0
  2  1  1  0
  3  2  1  0
  4  3  1  0
  5  4  1  0
  6  5  1  0
  6  1  1  0
  7  1  1  0
  9  8  2  0
  9  7  1  0
 10  9  1  0
 11 10  1  0
 12 10  1  0
 13 10  1  0
  1 14  1  1
  2 15  1  0
  2 16  1  0
  3 17  1  0
  3 18  1  0
  4 19  1  0
  4 20  1  0
  5 21  1  0
  5 22  1  0
  6 23  1  0
  6 24  1  0
M  CHG  1   5   1
M  END
$$$$
=
     RDKit          3D

 27 27  0  0  0  0  0  0  0  0999 V2000
   19.4520   14.7260    5.7520 C   0  0  1  0  0  0  0  0  0  0  0  0
   18.2870   15.3880    6.5050 C   0  0  0  0  0  0  0  0  0  0  0  0
   17.5220   16.3750    5.6230 C   0  0  0  0  0  0  0  0  0  0  0  0
   16.9520   15.7300    4.3520 C   0  0  1  0  0  0  0  0  0  0  0  0
   17.8270   14.5910    3.9000 N   0  0  0  0  0  4  0  0  0  0  0  0
   19.2770   14.7650    4.2350 C   0  0  0  0  0  0  0  0  0  0  0  0
   15.5420   15.1880    4.5490 C   0  0  0  0  0  0  0  0  0  0  0  0
   20.7700   15.3830    6.0990 C   0  0  0  0  0  0  0  0  0  0  0  0
   21.1890   15.5060    7.2410 O   0  0  0  0  0  0  0  0  0  0  0  0
   22.0630   17.0640    5.0990 C   0  0  0  0  0  0  0  0  0  0  0  0
   21.3990   15.8030    4.9710 O   0  0  0  0  0  0  0  0  0  0  0  0
   19.4537   13.6746    6.0753 H   0  0  0  0  0  0  0  0  0  0  0  0
   17.5936   14.6049    6.8456 H   0  0  0  0  0  0  0  0  0  0  0  0
   18.7056   15.9462    7.3554 H   0  0  0  0  0  0  0  0  0  0  0  0
   16.6891   16.7936    6.2070 H   0  0  0  0  0  0  0  0  0  0  0  0
   18.2337   17.1515    5.3060 H   0  0  0  0  0  0  0  0  0  0  0  0
   16.9211   16.5274    3.5949 H   0  0  0  0  0  0  0  0  0  0  0  0
   17.4922   13.7272    4.3502 H   0  0  0  0  0  0  0  0  0  0  0  0
   17.7612   14.5547    2.8727 H   0  0  0  0  0  0  0  0  0  0  0  0
   19.8602   13.9527    3.7767 H   0  0  0  0  0  0  0  0  0  0  0  0
   19.6317   15.7315    3.8475 H   0  0  0  0  0  0  0  0  0  0  0  0
   15.3278   15.1057    5.6248 H   0  0  0  0  0  0  0  0  0  0  0  0
   14.8178   15.8718    4.0822 H   0  0  0  0  0  0  0  0  0  0  0  0
   15.4623   14.1951    4.0822 H   0  0  0  0  0  0  0  0  0  0  0  0
   22.1899   17.3050    6.1647 H   0  0  0  0  0  0  0  0  0  0  0  0
   23.0495   17.0097    4.6153 H   0  0  0  0  0  0  0  0  0  0  0  0
   21.4601   17.8466    4.6153 H   0  0  0  0  0  0  0  0  0  0  0  0
  2  1  1  0
  3  2  1  0
  4  3  1  0
  5  4  1  0
  6  5  1  0
  6  1  1  0
  7  4  1  0
  8  1  1  0
  9  8  2  0
 11  8  1  0
 11 10  1  0
  1 12  1  1
  2 13  1  0
  2 14  1  0
  3 15  1  0
  3 16  1  0
  4 17  1  6
  5 18  1  0
  5 19  1  0
  6 20  1  0
  6 21  1  0
  7 22  1  0
  7 23  1  0
  7 24  1  0
 10 25  1  0
 10 26  1  0
 10 27  1  0
M  CHG  1   5   1
M  END
$$$$
=
     RDKit          3D

 45 46  0  0  0  0  0  0  0  0999 V2000
   16.9760   15.3220    4.3420 C   0  0  0  0  0  0  0  0  0  0  0  0
   15.8280   15.5940    5.0990 C   0  0  0  0  0  0  0  0  0  0  0  0
   14.6600   14.8430    4.9490 C   0  0  0  0  0  0  0  0  0  0  0  0
   14.6180   13.8020    4.0160 C   0  0  0  0  0  0  0  0  0  0  0  0
   15.7110   13.5440    3.1830 C   0  0  0  0  0  0  0  0  0  0  0  0
   16.8930   14.2780    3.4020 C   0  0  0  0  0  0  0  0  0  0  0  0
   20.1500   17.7770    5.1830 N   0  0  0  0  0  4  0  0  0  0  0  0
   20.3160   16.3730    5.7420 C   0  0  0  0  0  0  0  0  0  0  0  0
   18.9670   15.6190    5.6720 C   0  0  0  0  0  0  0  0  0  0  0  0
   18.1340   16.0970    4.5390 N   0  0  0  0  0  0  0  0  0  0  0  0
   18.9030   16.5160    3.3490 C   0  0  0  0  0  0  0  0  0  0  0  0
   19.8040   17.7290    3.6880 C   0  0  0  0  0  0  0  0  0  0  0  0
   21.3130   18.6840    5.5240 C   0  0  0  0  0  0  0  0  0  0  0  0
   22.6170   17.9060    5.7520 C   0  0  0  0  0  0  0  0  0  0  0  0
   23.7390   18.6980    5.3800 O   0  0  0  0  0  0  0  0  0  0  0  0
   15.7610   12.4480    2.3020 N   0  0  0  0  0  0  0  0  0  0  0  0
   13.1110   12.8610    3.8730 S   0  0  0  0  0  6  0  0  0  0  0  0
   12.5500   13.1440    2.5650 O   0  0  0  0  0  0  0  0  0  0  0  0
   13.4210   11.4980    4.2680 O   0  0  0  0  0  0  0  0  0  0  0  0
   12.0550   13.5940    5.1100 C   0  0  0  0  0  0  0  0  0  0  0  0
   10.8300   14.2340    4.4850 C   0  0  0  0  0  0  0  0  0  0  0  0
   15.8475   16.4177    5.8278 H   0  0  0  0  0  0  0  0  0  0  0  0
   13.7758   15.0696    5.5629 H   0  0  0  0  0  0  0  0  0  0  0  0
   17.7877   14.0249    2.8143 H   0  0  0  0  0  0  0  0  0  0  0  0
   19.3453   18.2158    5.6529 H   0  0  0  0  0  0  0  0  0  0  0  0
   21.0686   15.8309    5.1506 H   0  0  0  0  0  0  0  0  0  0  0  0
   20.6435   16.4355    6.7902 H   0  0  0  0  0  0  0  0  0  0  0  0
   19.1644   14.5447    5.5421 H   0  0  0  0  0  0  0  0  0  0  0  0
   18.4182   15.8063    6.6067 H   0  0  0  0  0  0  0  0  0  0  0  0
   19.5329   15.6797    3.0116 H   0  0  0  0  0  0  0  0  0  0  0  0
   18.2002   16.8048    2.5536 H   0  0  0  0  0  0  0  0  0  0  0  0
   20.7359   17.6543    3.1083 H   0  0  0  0  0  0  0  0  0  0  0  0
   19.2545   18.6471    3.4328 H   0  0  0  0  0  0  0  0  0  0  0  0
   21.4642   19.3909    4.6949 H   0  0  0  0  0  0  0  0  0  0  0  0
   21.0668   19.2062    6.4603 H   0  0  0  0  0  0  0  0  0  0  0  0
   22.6985   17.6393    6.8161 H   0  0  0  0  0  0  0  0  0  0  0  0
   22.6021   16.9961    5.1341 H   0  0  0  0  0  0  0  0  0  0  0  0
   24.1986   19.0224    6.1946 H   0  0  0  0  0  0  0  0  0  0  0  0
   16.5900   12.3017    1.7086 H   0  0  0  0  0  0  0  0  0  0  0  0
   14.9686   11.7920    2.2505 H   0  0  0  0  0  0  0  0  0  0  0  0
   11.7309   12.8120    5.8125 H   0  0  0  0  0  0  0  0  0  0  0  0
   12.6255   14.3764    5.6319 H   0  0  0  0  0  0  0  0  0  0  0  0
   10.1551   14.5866    5.2789 H   0  0  0  0  0  0  0  0  0  0  0  0
   11.1391   15.0858    3.8614 H   0  0  0  0  0  0  0  0  0  0  0  0
   10.3074   13.4937    3.8614 H   0  0  0  0  0  0  0  0  0  0  0  0
  2  1  2  0
  3  2  1  0
  4  3  2  0
  5  4  1  0
  6  5  2  0
  6  1  1  0
  8  7  1  0
  9  8  1  0
 10  1  1  0
 10  9  1  0
 11 10  1  0
 12 11  1  0
 12  7  1  0
 13  7  1  0
 14 13  1  0
 15 14  1  0
 16  5  1  0
 17  4  1  0
 18 17  2  0
 19 17  2  0
 20 17  1  0
 21 20  1  0
  2 22  1  0
  3 23  1  0
  6 24  1  0
  7 25  1  0
  8 26  1  0
  8 27  1  0
  9 28  1  0
  9 29  1  0
 11 30  1  0
 11 31  1  0
 12 32  1  0
 12 33  1  0
 13 34  1  0
 13 35  1  0
 14 36  1  0
 14 37  1  0
 15 38  1  0
 16 39  1  0
 16 40  1  0
 20 41  1  0
 20 42  1  0
 21 43  1  0
 21 44  1  0
 21 45  1  0
M  CHG  1   7   1
M  END
$$$$
=
     RDKit          3D

 43 44  0  0  0  0  0  0  0  0999 V2000
   18.8940   16.2630    5.1560 N   0  0  0  0  0  0  0  0  0  0  0  0
   17.7460   16.7890    5.7400 C   0  0  0  0  0  0  0  0  0  0  0  0
   17.6340   17.9150    6.2180 O   0  0  0  0  0  0  0  0  0  0  0  0
   21.1380   16.7080    5.9720 C   0  0  0  0  0  0  0  0  0  0  0  0
   22.3580   17.4000    5.8720 C   0  0  0  0  0  0  0  0  0  0  0  0
   22.5630   18.3400    4.8710 C   0  0  0  0  0  0  0  0  0  0  0  0
   21.5630   18.5820    3.9350 C   0  0  0  0  0  0  0  0  0  0  0  0
   20.3320   17.9020    3.9900 C   0  0  0  0  0  0  0  0  0  0  0  0
   20.1060   16.9840    5.0410 C   0  0  0  0  0  0  0  0  0  0  0  0
   20.3880   14.3970    6.6240 C   0  0  0  0  0  0  0  0  0  0  0  0
   20.9950   15.7090    7.0990 C   0  0  0  0  0  0  0  0  0  0  0  0
   19.3940   18.0980    2.8140 C   0  0  0  0  0  0  0  0  0  0  0  0
   19.8190   17.2670    1.6110 C   0  0  0  0  0  0  0  0  0  0  0  0
   16.6010   15.7920    5.8030 C   0  0  0  0  0  0  0  0  0  0  0  0
   15.3570   16.2070    4.5480 S   0  0  0  0  0  0  0  0  0  0  0  0
   15.1020   14.6330    3.8650 C   0  0  0  0  0  0  0  0  0  0  0  0
   13.9380   14.0840    3.7940 N   0  0  0  0  0  0  0  0  0  0  0  0
   13.8570   12.8390    3.2250 C   0  0  0  0  0  0  0  0  0  0  0  0
   14.9420   12.1810    2.7870 C   0  0  0  0  0  0  0  0  0  0  0  0
   16.2600   12.8170    2.9020 C   0  0  0  0  0  0  0  0  0  0  0  0
   17.2810   12.2500    2.5340 O   0  0  0  0  0  0  0  0  0  0  0  0
   16.2540   14.0600    3.4460 N   0  0  0  0  0  0  0  0  0  0  0  0
   12.6140   12.2570    3.1190 N   0  0  0  0  0  0  0  0  0  0  0  0
   18.8599   15.3011    4.7892 H   0  0  0  0  0  0  0  0  0  0  0  0
   23.1601   17.1940    6.5960 H   0  0  0  0  0  0  0  0  0  0  0  0
   23.5132   18.8916    4.8183 H   0  0  0  0  0  0  0  0  0  0  0  0
   21.7375   19.3186    3.1369 H   0  0  0  0  0  0  0  0  0  0  0  0
   20.1058   13.7870    7.4948 H   0  0  0  0  0  0  0  0  0  0  0  0
   19.4946   14.6049    6.0169 H   0  0  0  0  0  0  0  0  0  0  0  0
   21.1248   13.8506    6.0169 H   0  0  0  0  0  0  0  0  0  0  0  0
   20.3460   16.1401    7.8755 H   0  0  0  0  0  0  0  0  0  0  0  0
   21.9994   15.4956    7.4934 H   0  0  0  0  0  0  0  0  0  0  0  0
   18.3789   17.7984    3.1137 H   0  0  0  0  0  0  0  0  0  0  0  0
   19.4224   19.1591    2.5255 H   0  0  0  0  0  0  0  0  0  0  0  0
   20.2944   16.3374    1.9570 H   0  0  0  0  0  0  0  0  0  0  0  0
   18.9352   17.0227    1.0034 H   0  0  0  0  0  0  0  0  0  0  0  0
   20.5344   17.8406    1.0034 H   0  0  0  0  0  0  0  0  0  0  0  0
   16.9872   14.7795    5.6139 H   0  0  0  0  0  0  0  0  0  0  0  0
   16.1388   15.8313    6.8004 H   0  0  0  0  0  0  0  0  0  0  0  0
   14.8446   11.1774    2.3473 H   0  0  0  0  0  0  0  0  0  0  0  0
   17.1405   14.5757    3.5415 H   0  0  0  0  0  0  0  0  0  0  0  0
   12.5172   11.3225    2.6967 H   0  0  0  0  0  0  0  0  0  0  0  0
   11.7808   12.7560    3.4620 H   0  0  0  0  0  0  0  0  0  0  0  0
  2  1  1  0
  3  2  2  0
  5  4  2  0
  6  5  1  0
  7  6  2  0
  8  7  1  0
  9  1  1  0
  9  8  2  0
  9  4  1  0
 11 10  1  0
 11  4  1  0
 12  8  1  0
 13 12  1  0
 14  2  1  0
 15 14  1  0
 16 15  1  0
 17 16  2  0
 18 17  1  0
 19 18  2  0
 20 19  1  0
 21 20  2  0
 22 20  1  0
 22 16  1  0
 23 18  1  0
  1 24  1  0
  5 25  1  0
  6 26  1  0
  7 27  1  0
 10 28  1  0
 10 29  1  0
 10 30  1  0
 11 31  1  0
 11 32  1  0
 12 33  1  0
 12 34  1  0
 13 35  1  0
 13 36  1  0
 13 37  1  0
 14 38  1  0
 14 39  1  0
 19 40  1  0
 22 41  1  0
 23 42  1  0
 23 43  1  0
M  END
$$$$
=
     RDKit          3D

 56 58  0  0  0  0  0  0  0  0999 V2000
   18.2320   15.8740    4.6020 C   0  0  0  0  0  0  0  0  0  0  0  0
   17.9790   14.8450    3.6860 C   0  0  0  0  0  0  0  0  0  0  0  0
   16.6760   14.3940    3.4460 C   0  0  0  0  0  0  0  0  0  0  0  0
   15.5890   14.9710    4.0990 C   0  0  0  0  0  0  0  0  0  0  0  0
   15.8260   15.9990    5.0170 C   0  0  0  0  0  0  0  0  0  0  0  0
   17.1310   16.4120    5.3170 C   0  0  0  0  0  0  0  0  0  0  0  0
   23.1010   18.3580    5.5170 C   0  0  0  0  0  0  0  0  0  0  0  0
   21.8300   17.6440    5.2140 N   0  0  0  0  0  4  0  0  0  0  0  0
   21.2660   17.9400    3.8320 C   0  0  0  0  0  0  0  0  0  0  0  0
   19.8030   17.4370    3.7500 C   0  0  0  0  0  0  0  0  0  0  0  0
   19.5290   16.4220    4.8120 N   0  0  0  0  0  0  0  0  0  0  0  0
   20.6210   15.4350    4.9620 C   0  0  0  0  0  0  0  0  0  0  0  0
   21.9000   16.1410    5.4770 C   0  0  0  0  0  0  0  0  0  0  0  0
   14.2470   14.5910    3.8780 N   0  0  0  0  0  0  0  0  0  0  0  0
   13.7560   13.3050    3.7280 C   0  0  0  0  0  0  0  0  0  0  0  0
   14.3950   12.2640    3.8210 O   0  0  0  0  0  0  0  0  0  0  0  0
   12.2920   13.2190    3.4690 C   0  0  0  0  0  0  0  0  0  0  0  0
   11.7580   12.3250    2.5320 C   0  0  0  0  0  0  0  0  0  0  0  0
   10.3750   12.2710    2.3180 C   0  0  0  0  0  0  0  0  0  0  0  0
    9.5180   13.1040    3.0390 C   0  0  0  0  0  0  0  0  0  0  0  0
   10.0550   13.9770    3.9880 C   0  0  0  0  0  0  0  0  0  0  0  0
   11.4330   14.0350    4.2090 C   0  0  0  0  0  0  0  0  0  0  0  0
    8.1570   13.1550    2.9360 O   0  0  0  0  0  0  0  0  0  0  0  0
    7.4950   14.4240    2.9220 C   0  0  0  0  0  0  0  0  0  0  0  0
    6.0600   14.1740    3.3800 C   0  0  0  0  0  0  0  0  0  0  0  0
    7.4980   14.9960    1.5070 C   0  0  0  0  0  0  0  0  0  0  0  0
   17.3290   17.5020    6.2010 N   0  0  0  0  0  0  0  0  0  0  0  0
   18.8188   14.3834    3.1460 H   0  0  0  0  0  0  0  0  0  0  0  0
   16.5080   13.5736    2.7328 H   0  0  0  0  0  0  0  0  0  0  0  0
   14.9751   16.4908    5.5111 H   0  0  0  0  0  0  0  0  0  0  0  0
   23.2300   18.4305    6.6070 H   0  0  0  0  0  0  0  0  0  0  0  0
   23.9459   17.8025    5.0839 H   0  0  0  0  0  0  0  0  0  0  0  0
   23.0661   19.3686    5.0839 H   0  0  0  0  0  0  0  0  0  0  0  0
   21.1592   18.0372    5.8895 H   0  0  0  0  0  0  0  0  0  0  0  0
   21.2910   19.0247    3.6508 H   0  0  0  0  0  0  0  0  0  0  0  0
   21.8725   17.4260    3.0718 H   0  0  0  0  0  0  0  0  0  0  0  0
   19.1208   18.2898    3.8819 H   0  0  0  0  0  0  0  0  0  0  0  0
   19.6463   16.9689    2.7670 H   0  0  0  0  0  0  0  0  0  0  0  0
   20.3167   14.6604    5.6813 H   0  0  0  0  0  0  0  0  0  0  0  0
   20.8295   14.9731    3.9857 H   0  0  0  0  0  0  0  0  0  0  0  0
   21.9973   15.9679    6.5589 H   0  0  0  0  0  0  0  0  0  0  0  0
   22.7701   15.7290    4.9449 H   0  0  0  0  0  0  0  0  0  0  0  0
   13.5577   15.3543    3.8223 H   0  0  0  0  0  0  0  0  0  0  0  0
   12.4271   11.6633    1.9625 H   0  0  0  0  0  0  0  0  0  0  0  0
    9.9623   11.5690    1.5785 H   0  0  0  0  0  0  0  0  0  0  0  0
    9.3841   14.6271    4.5687 H   0  0  0  0  0  0  0  0  0  0  0  0
   11.8412   14.7223    4.9647 H   0  0  0  0  0  0  0  0  0  0  0  0
    8.0020   15.1446    3.5806 H   0  0  0  0  0  0  0  0  0  0  0  0
    6.0219   14.1674    4.4793 H   0  0  0  0  0  0  0  0  0  0  0  0
    5.4080   14.9721    2.9953 H   0  0  0  0  0  0  0  0  0  0  0  0
    5.7163   13.2025    2.9953 H   0  0  0  0  0  0  0  0  0  0  0  0
    7.5038   16.0949    1.5557 H   0  0  0  0  0  0  0  0  0  0  0  0
    8.3943   14.6480    0.9727 H   0  0  0  0  0  0  0  0  0  0  0  0
    6.5981   14.6574    0.9727 H   0  0  0  0  0  0  0  0  0  0  0  0
   18.2840   17.8138    6.4283 H   0  0  0  0  0  0  0  0  0  0  0  0
   16.5179   17.9823    6.6161 H   0  0  0  0  0  0  0  0  0  0  0  0
  2  1  2  0
  3  2  1  0
  4  3  2  0
  5  4  1  0
  6  5  2  0
  6  1  1  0
  8  7  1  0
  9  8  1  0
 10  9  1  0
 11  1  1  0
 11 10  1  0
 12 11  1  0
 13 12  1  0
 13  8  1  0
 14  4  1  0
 15 14  1  0
 16 15  2  0
 17 15  1  0
 18 17  2  0
 19 18  1  0
 20 19  2  0
 21 20  1  0
 22 21  2  0
 22 17  1  0
 23 20  1  0
 24 23  1  0
 25 24  1  0
 26 24  1  0
 27  6  1  0
  2 28  1  0
  3 29  1  0
  5 30  1  0
  7 31  1  0
  7 32  1  0
  7 33  1  0
  8 34  1  0
  9 35  1  0
  9 36  1  0
 10 37  1  0
 10 38  1  0
 12 39  1  0
 12 40  1  0
 13 41  1  0
 13 42  1  0
 14 43  1  0
 18 44  1  0
 19 45  1  0
 21 46  1  0
 22 47  1  0
 24 48  1  0
 25 49  1  0
 25 50  1  0
 25 51  1  0
 26 52  1  0
 26 53  1  0
 26 54  1  0
 27 55  1  0
 27 56  1  0
M  CHG  1   8   1
M  END
$$$$
=
     RDKit          3D

 22 22  0  0  0  0  0  0  0  0999 V2000
   17.4280   15.8720    4.6310 C   0  0  0  0  0  0  0  0  0  0  0  0
   18.3390   16.8260    4.4400 N   0  0  0  0  0  0  0  0  0  0  0  0
   19.4080   16.4520    3.7540 C   0  0  0  0  0  0  0  0  0  0  0  0
   20.3750   17.4090    3.5210 N   0  0  0  0  0  0  0  0  0  0  0  0
   19.6000   15.2490    3.2380 N   0  0  0  0  0  0  0  0  0  0  0  0
   18.6440   14.3710    3.4950 C   0  0  0  0  0  0  0  0  0  0  0  0
   17.5320   14.6270    4.1650 N   0  0  0  0  0  0  0  0  0  0  0  0
   18.7930   13.0980    2.9820 N   0  0  0  0  0  0  0  0  0  0  0  0
   14.9220   15.8240    4.6540 C   0  0  0  0  0  0  0  0  0  0  0  0
   16.1840   16.2150    5.4210 C   0  0  0  0  0  0  0  0  0  0  0  0
   16.2170   15.5570    6.8010 C   0  0  0  0  0  0  0  0  0  0  0  0
   21.2243   17.1648    2.9918 H   0  0  0  0  0  0  0  0  0  0  0  0
   20.2473   18.3673    3.8763 H   0  0  0  0  0  0  0  0  0  0  0  0
   18.0719   12.3840    3.1585 H   0  0  0  0  0  0  0  0  0  0  0  0
   19.6252   12.8623    2.4228 H   0  0  0  0  0  0  0  0  0  0  0  0
   14.1217   15.5761    5.3668 H   0  0  0  0  0  0  0  0  0  0  0  0
   14.6020   16.6651    4.0215 H   0  0  0  0  0  0  0  0  0  0  0  0
   15.1336   14.9493    4.0215 H   0  0  0  0  0  0  0  0  0  0  0  0
   16.1629   17.3051    5.5664 H   0  0  0  0  0  0  0  0  0  0  0  0
   16.1780   16.3340    7.5787 H   0  0  0  0  0  0  0  0  0  0  0  0
   15.3513   14.8869    6.9085 H   0  0  0  0  0  0  0  0  0  0  0  0
   17.1454   14.9768    6.9085 H   0  0  0  0  0  0  0  0  0  0  0  0
  2  1  2  0
  3  2  1  0
  4  3  1  0
  5  3  2  0
  6  5  1  0
  7  6  2  0
  7  1  1  0
  8  6  1  0
 10  9  1  0
 10  1  1  0
 11 10  1  0
  4 12  1  0
  4 13  1  0
  8 14  1  0
  8 15  1  0
  9 16  1  0
  9 17  1  0
  9 18  1  0
 10 19  1  0
 11 20  1  0
 11 21  1  0
 11 22  1  0
M  END
$$$$
=
     RDKit          3D

 40 41  0  0  0  0  0  0  0  0999 V2000
   19.1350   13.5930    3.3760 O   0  0  0  0  0  0  0  0  0  0  0  0
   18.2400   14.3000    3.8150 C   0  0  0  0  0  0  0  0  0  0  0  0
   16.8970   14.0970    3.5130 N   0  0  0  0  0  0  0  0  0  0  0  0
   16.5490   13.1340    2.4820 C   0  0  0  0  0  0  0  0  0  0  0  0
   15.3370   12.2960    2.8870 C   0  0  0  0  0  0  0  0  0  0  0  0
   14.4270   13.0380    3.8650 C   0  0  1  0  0  0  0  0  0  0  0  0
   14.4500   14.5630    3.6490 C   0  0  2  0  0  0  0  0  0  0  0  0
   15.8750   15.0630    3.9210 C   0  0  0  0  0  0  0  0  0  0  0  0
   13.5320   15.2180    4.5370 O   0  0  0  0  0  0  0  0  0  0  0  0
   12.1820   14.7770    4.3420 C   0  0  0  0  0  0  0  0  0  0  0  0
   12.0520   13.2760    4.6170 C   0  0  0  0  0  0  0  0  0  0  0  0
   13.0070   12.5200    3.7260 N   0  0  0  0  0  4  0  0  0  0  0  0
   18.4140   15.3530    4.6490 O   0  0  0  0  0  0  0  0  0  0  0  0
   19.3700   16.4040    4.3410 C   0  0  0  0  0  0  0  0  0  0  0  0
   18.9150   17.6010    5.1890 C   0  0  0  0  0  0  0  0  0  0  0  0
   19.3050   16.7980    2.8610 C   0  0  0  0  0  0  0  0  0  0  0  0
   20.7870   16.0100    4.7700 C   0  0  0  0  0  0  0  0  0  0  0  0
   16.3162   13.6737    1.5522 H   0  0  0  0  0  0  0  0  0  0  0  0
   17.4044   12.4577    2.3375 H   0  0  0  0  0  0  0  0  0  0  0  0
   14.7598   12.0473    1.9842 H   0  0  0  0  0  0  0  0  0  0  0  0
   15.7045   11.3882    3.3879 H   0  0  0  0  0  0  0  0  0  0  0  0
   14.8055   12.8480    4.8802 H   0  0  0  0  0  0  0  0  0  0  0  0
   14.1476   14.7922    2.6165 H   0  0  0  0  0  0  0  0  0  0  0  0
   16.0324   15.9988    3.3647 H   0  0  0  0  0  0  0  0  0  0  0  0
   15.9738   15.2151    5.0059 H   0  0  0  0  0  0  0  0  0  0  0  0
   11.5208   15.3273    5.0276 H   0  0  0  0  0  0  0  0  0  0  0  0
   11.8973   14.9687    3.2969 H   0  0  0  0  0  0  0  0  0  0  0  0
   12.2943   13.0734    5.6707 H   0  0  0  0  0  0  0  0  0  0  0  0
   11.0213   12.9520    4.4105 H   0  0  0  0  0  0  0  0  0  0  0  0
   12.9877   11.5231    3.9845 H   0  0  0  0  0  0  0  0  0  0  0  0
   12.7095   12.6516    2.7487 H   0  0  0  0  0  0  0  0  0  0  0  0
   19.0098   17.3515    6.2561 H   0  0  0  0  0  0  0  0  0  0  0  0
   19.5442   18.4735    4.9591 H   0  0  0  0  0  0  0  0  0  0  0  0
   17.8651   17.8353    4.9591 H   0  0  0  0  0  0  0  0  0  0  0  0
   19.1265   17.8802    2.7772 H   0  0  0  0  0  0  0  0  0  0  0  0
   20.2571   16.5445    2.3719 H   0  0  0  0  0  0  0  0  0  0  0  0
   18.4848   16.2521    2.3719 H   0  0  0  0  0  0  0  0  0  0  0  0
   20.8463   15.9935    5.8683 H   0  0  0  0  0  0  0  0  0  0  0  0
   21.0254   15.0115    4.3749 H   0  0  0  0  0  0  0  0  0  0  0  0
   21.5066   16.7421    4.3749 H   0  0  0  0  0  0  0  0  0  0  0  0
  2  1  2  0
  3  2  1  0
  4  3  1  0
  5  4  1  0
  6  5  1  0
  7  6  1  0
  8  7  1  0
  8  3  1  0
  9  7  1  0
 10  9  1  0
 11 10  1  0
 12 11  1  0
 12  6  1  0
 13  2  1  0
 14 13  1  0
 15 14  1  0
 16 14  1  0
 17 14  1  0
  4 18  1  0
  4 19  1  0
  5 20  1  0
  5 21  1  0
  6 22  1  1
  7 23  1  6
  8 24  1  0
  8 25  1  0
 10 26  1  0
 10 27  1  0
 11 28  1  0
 11 29  1  0
 12 30  1  0
 12 31  1  0
 15 32  1  0
 15 33  1  0
 15 34  1  0
 16 35  1  0
 16 36  1  0
 16 37  1  0
 17 38  1  0
 17 39  1  0
 17 40  1  0
M  CHG  1  12   1
M  END
$$$$
=
     RDKit          3D

 18 18  0  0  0  0  0  0  0  0999 V2000
   15.9810   15.1500    4.3760 C   0  0  0  0  0  0  0  0  0  0  0  0
   15.8690   16.1100    5.3800 C   0  0  0  0  0  0  0  0  0  0  0  0
   16.9470   16.9500    5.6610 C   0  0  0  0  0  0  0  0  0  0  0  0
   18.1360   16.8450    4.9270 C   0  0  0  0  0  0  0  0  0  0  0  0
   18.2400   15.9170    3.8720 C   0  0  0  0  0  0  0  0  0  0  0  0
   17.1670   15.0430    3.6410 C   0  0  0  0  0  0  0  0  0  0  0  0
   19.4510   15.6910    3.1900 N   0  0  0  0  0  0  0  0  0  0  0  0
   13.9720   13.5250    3.8770 C   0  0  0  0  0  0  0  0  0  0  0  0
   14.8890   14.2660    4.1050 C   0  0  0  0  0  0  0  0  0  0  0  0
   19.2240   17.7170    5.2720 C   0  0  0  0  0  0  0  0  0  0  0  0
   20.1320   18.4500    5.5570 C   0  0  0  0  0  0  0  0  0  0  0  0
   14.9328   16.2053    5.9496 H   0  0  0  0  0  0  0  0  0  0  0  0
   16.8631   17.6984    6.4628 H   0  0  0  0  0  0  0  0  0  0  0  0
   17.2593   14.2626    2.8713 H   0  0  0  0  0  0  0  0  0  0  0  0
   19.4898   15.0045    2.4232 H   0  0  0  0  0  0  0  0  0  0  0  0
   20.2980   16.2122    3.4580 H   0  0  0  0  0  0  0  0  0  0  0  0
   13.1320   12.8462    3.6681 H   0  0  0  0  0  0  0  0  0  0  0  0
   20.9635   19.1212    5.8180 H   0  0  0  0  0  0  0  0  0  0  0  0
  2  1  2  0
  3  2  1  0
  4  3  2  0
  5  4  1  0
  6  1  1  0
  6  5  2  0
  7  5  1  0
  9  8  3  0
  9  1  1  0
 10  4  1  0
 11 10  3  0
  2 12  1  0
  3 13  1  0
  6 14  1  0
  7 15  1  0
  7 16  1  0
  8 17  1  0
 11 18  1  0
M  END
$$$$
=
     RDKit          3D

 36 35  0  0  0  0  0  0  0  0999 V2000
   18.5540   15.9570    5.6580 N   0  0  0  0  0  4  0  0  0  0  0  0
   19.3230   15.5610    4.4090 C   0  0  2  0  0  0  0  0  0  0  0  0
   18.8560   14.1770    3.9600 C   0  0  0  0  0  0  0  0  0  0  0  0
   20.8170   15.5820    4.7440 C   0  0  0  0  0  0  0  0  0  0  0  0
   21.0190   15.5410    6.2370 C   0  0  0  0  0  0  0  0  0  0  0  0
   20.7900   14.5600    6.9270 O   0  0  0  0  0  0  0  0  0  0  0  0
   21.5080   16.7280    6.6700 O   0  0  0  0  0  0  0  0  0  0  0  0
   22.3620   17.3910    5.7320 C   0  0  0  0  0  0  0  0  0  0  0  0
   17.2550   16.6920    5.4460 C   0  0  0  0  0  0  0  0  0  0  0  0
   16.0790   15.7810    5.7780 C   0  0  0  0  0  0  0  0  0  0  0  0
   15.0560   15.7730    4.6490 C   0  0  0  0  0  0  0  0  0  0  0  0
   15.5510   14.9230    3.6190 O   0  0  0  0  0  0  0  0  0  0  0  0
   15.5470   12.7440    2.5360 C   0  0  0  0  0  0  0  0  0  0  0  0
   14.9760   13.6140    3.6410 C   0  0  0  0  0  0  0  0  0  0  0  0
   18.3437   15.0954    6.1818 H   0  0  0  0  0  0  0  0  0  0  0  0
   19.1647   16.6221    6.1536 H   0  0  0  0  0  0  0  0  0  0  0  0
   19.1412   16.2612    3.5804 H   0  0  0  0  0  0  0  0  0  0  0  0
   18.6465   13.5562    4.8436 H   0  0  0  0  0  0  0  0  0  0  0  0
   17.9417   14.2764    3.3566 H   0  0  0  0  0  0  0  0  0  0  0  0
   19.6437   13.7021    3.3566 H   0  0  0  0  0  0  0  0  0  0  0  0
   21.3035   14.7072    4.2879 H   0  0  0  0  0  0  0  0  0  0  0  0
   21.2594   16.5082    4.3484 H   0  0  0  0  0  0  0  0  0  0  0  0
   23.1176   17.9776    6.2751 H   0  0  0  0  0  0  0  0  0  0  0  0
   22.8631   16.6430    5.1000 H   0  0  0  0  0  0  0  0  0  0  0  0
   21.7616   18.0619    5.1000 H   0  0  0  0  0  0  0  0  0  0  0  0
   17.2262   17.5764    6.0995 H   0  0  0  0  0  0  0  0  0  0  0  0
   17.1843   17.0029    4.3932 H   0  0  0  0  0  0  0  0  0  0  0  0
   16.4503   14.7573    5.9337 H   0  0  0  0  0  0  0  0  0  0  0  0
   15.5912   16.1580    6.6890 H   0  0  0  0  0  0  0  0  0  0  0  0
   14.0932   15.3908    5.0191 H   0  0  0  0  0  0  0  0  0  0  0  0
   14.9000   16.7918    4.2646 H   0  0  0  0  0  0  0  0  0  0  0  0
   16.0992   11.9027    2.9801 H   0  0  0  0  0  0  0  0  0  0  0  0
   14.7269   12.3566    1.9136 H   0  0  0  0  0  0  0  0  0  0  0  0
   16.2287   13.3422    1.9136 H   0  0  0  0  0  0  0  0  0  0  0  0
   13.8877   13.6980    3.5051 H   0  0  0  0  0  0  0  0  0  0  0  0
   15.2116   13.1467    4.6086 H   0  0  0  0  0  0  0  0  0  0  0  0
  2  1  1  0
  3  2  1  0
  4  2  1  0
  5  4  1  0
  6  5  2  0
  7  5  1  0
  8  7  1  0
  9  1  1  0
 10  9  1  0
 11 10  1  0
 12 11  1  0
 14 13  1  0
 14 12  1  0
  1 15  1  0
  1 16  1  0
  2 17  1  6
  3 18  1  0
  3 19  1  0
  3 20  1  0
  4 21  1  0
  4 22  1  0
  8 23  1  0
  8 24  1  0
  8 25  1  0
  9 26  1  0
  9 27  1  0
 10 28  1  0
 10 29  1  0
 11 30  1  0
 11 31  1  0
 13 32  1  0
 13 33  1  0
 13 34  1  0
 14 35  1  0
 14 36  1  0
M  CHG  1   1   1
M  END
$$$$
=
     RDKit          3D

 42 43  0  0  0  0  0  0  0  0999 V2000
   17.5350   14.1490    3.3180 C   0  0  2  0  0  0  0  0  0  0  0  0
   18.5680   16.4160    3.8870 C   0  0  2  0  0  0  0  0  0  0  0  0
   19.1500   17.2950    4.9990 C   0  0  0  0  0  0  0  0  0  0  0  0
   20.3170   16.6370    5.7350 C   0  0  0  0  0  0  0  0  0  0  0  0
   19.9580   15.2400    6.2280 C   0  0  0  0  0  0  0  0  0  0  0  0
   19.3870   14.3530    5.1220 C   0  0  0  0  0  0  0  0  0  0  0  0
   18.1780   15.0160    4.4280 C   0  0  2  0  0  0  0  0  0  0  0  0
   19.7860   17.4890    1.9280 C   0  0  0  0  0  0  0  0  0  0  0  0
   19.5690   16.2850    2.7660 N   0  0  0  0  0  4  0  0  0  0  0  0
   16.0460   13.9360    3.4640 C   0  0  0  0  0  0  0  0  0  0  0  0
   15.4470   12.8120    2.8790 C   0  0  0  0  0  0  0  0  0  0  0  0
   14.0710   12.6000    2.9940 C   0  0  0  0  0  0  0  0  0  0  0  0
   13.2640   13.5020    3.6860 C   0  0  0  0  0  0  0  0  0  0  0  0
   13.8460   14.6270    4.2670 C   0  0  0  0  0  0  0  0  0  0  0  0
   15.2250   14.8420    4.1550 C   0  0  0  0  0  0  0  0  0  0  0  0
   11.9380   13.1730    3.7180 O   0  0  0  0  0  0  0  0  0  0  0  0
   11.0330   14.1670    4.1820 C   0  0  0  0  0  0  0  0  0  0  0  0
   18.2430   12.9000    3.2130 O   0  0  0  0  0  0  0  0  0  0  0  0
   17.6339   14.7166    2.3810 H   0  0  0  0  0  0  0  0  0  0  0  0
   17.6549   16.8957    3.5047 H   0  0  0  0  0  0  0  0  0  0  0  0
   19.5037   18.2360    4.5524 H   0  0  0  0  0  0  0  0  0  0  0  0
   18.3508   17.4635    5.7359 H   0  0  0  0  0  0  0  0  0  0  0  0
   21.1745   16.5637    5.0499 H   0  0  0  0  0  0  0  0  0  0  0  0
   20.5629   17.2564    6.6101 H   0  0  0  0  0  0  0  0  0  0  0  0
   20.8655   14.7638    6.6277 H   0  0  0  0  0  0  0  0  0  0  0  0
   19.1822   15.3492    7.0001 H   0  0  0  0  0  0  0  0  0  0  0  0
   20.1709   14.1676    4.3729 H   0  0  0  0  0  0  0  0  0  0  0  0
   19.0477   13.4110    5.5776 H   0  0  0  0  0  0  0  0  0  0  0  0
   17.4020   15.1246    5.2000 H   0  0  0  0  0  0  0  0  0  0  0  0
   19.9436   18.3635    2.5764 H   0  0  0  0  0  0  0  0  0  0  0  0
   20.6716   17.3390    1.2930 H   0  0  0  0  0  0  0  0  0  0  0  0
   18.9038   17.6576    1.2930 H   0  0  0  0  0  0  0  0  0  0  0  0
   19.2481   15.5268    2.1471 H   0  0  0  0  0  0  0  0  0  0  0  0
   20.4727   16.1077    3.2272 H   0  0  0  0  0  0  0  0  0  0  0  0
   16.0655   12.0908    2.3247 H   0  0  0  0  0  0  0  0  0  0  0  0
   13.6184   11.7099    2.5326 H   0  0  0  0  0  0  0  0  0  0  0  0
   13.2208   15.3475    4.8147 H   0  0  0  0  0  0  0  0  0  0  0  0
   15.6726   15.7350    4.6157 H   0  0  0  0  0  0  0  0  0  0  0  0
   11.0275   14.1731    5.2820 H   0  0  0  0  0  0  0  0  0  0  0  0
   11.3499   15.1531    3.8115 H   0  0  0  0  0  0  0  0  0  0  0  0
   10.0216   13.9437    3.8115 H   0  0  0  0  0  0  0  0  0  0  0  0
   18.4389   12.5545    4.1198 H   0  0  0  0  0  0  0  0  0  0  0  0
  3  2  1  0
  4  3  1  0
  5  4  1  0
  6  5  1  0
  7  6  1  0
  7  1  1  0
  7  2  1  0
  9  8  1  0
  9  2  1  0
 10  1  1  0
 11 10  2  0
 12 11  1  0
 13 12  2  0
 14 13  1  0
 15 14  2  0
 15 10  1  0
 16 13  1  0
 17 16  1  0
 18  1  1  0
  1 19  1  6
  2 20  1  6
  3 21  1  0
  3 22  1  0
  4 23  1  0
  4 24  1  0
  5 25  1  0
  5 26  1  0
  6 27  1  0
  6 28  1  0
  7 29  1  1
  8 30  1  0
  8 31  1  0
  8 32  1  0
  9 33  1  0
  9 34  1  0
 11 35  1  0
 12 36  1  0
 14 37  1  0
 15 38  1  0
 17 39  1  0
 17 40  1  0
 17 41  1  0
 18 42  1  0
M  CHG  1   9   1
M  END
$$$$
=
     RDKit          3D

 37 38  0  0  0  0  0  0  0  0999 V2000
   20.9850   15.3900    6.5050 C   0  0  0  0  0  0  0  0  0  0  0  0
   20.0150   15.2530    5.3420 C   0  0  2  0  0  0  0  0  0  0  0  0
   20.3590   16.3120    4.3100 N   0  0  0  0  0  4  0  0  0  0  0  0
   19.4220   16.3400    3.1160 C   0  0  2  0  0  0  0  0  0  0  0  0
   19.8390   17.4880    2.2110 C   0  0  0  0  0  0  0  0  0  0  0  0
   17.9430   16.4810    3.5810 C   0  0  0  0  0  0  0  0  0  0  0  0
   17.5800   15.4130    4.6080 N   0  0  1  0  0  4  0  0  0  0  0  0
   18.5360   15.3920    5.8050 C   0  0  0  0  0  0  0  0  0  0  0  0
   16.1160   15.5510    5.0440 C   0  0  0  0  0  0  0  0  0  0  0  0
   15.2150   14.5880    4.3250 C   0  0  0  0  0  0  0  0  0  0  0  0
   15.7450   13.6650    3.4080 C   0  0  0  0  0  0  0  0  0  0  0  0
   14.9100   12.7470    2.7710 C   0  0  0  0  0  0  0  0  0  0  0  0
   13.5440   12.7400    3.0400 C   0  0  0  0  0  0  0  0  0  0  0  0
   13.0050   13.6590    3.9380 C   0  0  0  0  0  0  0  0  0  0  0  0
   13.8340   14.5810    4.5770 C   0  0  0  0  0  0  0  0  0  0  0  0
   20.4335   15.3121    7.4536 H   0  0  0  0  0  0  0  0  0  0  0  0
   21.7372   14.5892    6.4514 H   0  0  0  0  0  0  0  0  0  0  0  0
   21.4860   16.3678    6.4514 H   0  0  0  0  0  0  0  0  0  0  0  0
   20.1135   14.2488    4.9039 H   0  0  0  0  0  0  0  0  0  0  0  0
   20.3263   17.2336    4.7687 H   0  0  0  0  0  0  0  0  0  0  0  0
   21.2953   16.0814    3.9479 H   0  0  0  0  0  0  0  0  0  0  0  0
   19.4888   15.3952    2.5566 H   0  0  0  0  0  0  0  0  0  0  0  0
   20.1504   18.3452    2.8260 H   0  0  0  0  0  0  0  0  0  0  0  0
   20.6784   17.1681    1.5761 H   0  0  0  0  0  0  0  0  0  0  0  0
   18.9900   17.7814    1.5761 H   0  0  0  0  0  0  0  0  0  0  0  0
   17.8025   17.4743    4.0322 H   0  0  0  0  0  0  0  0  0  0  0  0
   17.2903   16.3555    2.7045 H   0  0  0  0  0  0  0  0  0  0  0  0
   17.6890   14.4989    4.1460 H   0  0  0  0  0  0  0  0  0  0  0  0
   18.4236   16.3289    6.3703 H   0  0  0  0  0  0  0  0  0  0  0  0
   18.2857   14.5260    6.4354 H   0  0  0  0  0  0  0  0  0  0  0  0
   16.0490   15.3587    6.1250 H   0  0  0  0  0  0  0  0  0  0  0  0
   15.7854   16.5706    4.7967 H   0  0  0  0  0  0  0  0  0  0  0  0
   16.8235   13.6662    3.1913 H   0  0  0  0  0  0  0  0  0  0  0  0
   15.3318   12.0269    2.0544 H   0  0  0  0  0  0  0  0  0  0  0  0
   12.8898   12.0084    2.5432 H   0  0  0  0  0  0  0  0  0  0  0  0
   11.9243   13.6574    4.1433 H   0  0  0  0  0  0  0  0  0  0  0  0
   13.4032   15.3068    5.2824 H   0  0  0  0  0  0  0  0  0  0  0  0
  2  1  1  0
  3  2  1  0
  4  3  1  0
  5  4  1  0
  6  4  1  0
  7  6  1  0
  8  7  1  0
  8  2  1  0
  9  7  1  0
 10  9  1  0
 11 10  2  0
 12 11  1  0
 13 12  2  0
 14 13  1  0
 15 14  2  0
 15 10  1  0
  1 16  1  0
  1 17  1  0
  1 18  1  0
  2 19  1  6
  3 20  1  0
  3 21  1  0
  4 22  1  6
  5 23  1  0
  5 24  1  0
  5 25  1  0
  6 26  1  0
  6 27  1  0
  7 28  1  6
  8 29  1  0
  8 30  1  0
  9 31  1  0
  9 32  1  0
 11 33  1  0
 12 34  1  0
 13 35  1  0
 14 36  1  0
 15 37  1  0
M  CHG  2   3   1   7   1
M  END
$$$$
=
     RDKit          3D

 45 47  0  0  0  0  0  0  0  0999 V2000
   18.9120   15.6260    5.5590 C   0  0  0  0  0  0  0  0  0  0  0  0
   17.7210   16.1650    6.0540 C   0  0  0  0  0  0  0  0  0  0  0  0
   16.5000   15.7860    5.4940 C   0  0  0  0  0  0  0  0  0  0  0  0
   16.4710   14.8620    4.4520 C   0  0  0  0  0  0  0  0  0  0  0  0
   17.6150   14.3320    3.9740 N   0  0  0  0  0  0  0  0  0  0  0  0
   18.7910   14.7230    4.5100 C   0  0  0  0  0  0  0  0  0  0  0  0
   15.2160   14.4750    3.9220 N   0  0  0  0  0  0  0  0  0  0  0  0
   15.3170   13.1120    3.3650 C   0  0  0  0  0  0  0  0  0  0  0  0
   14.0830   12.7120    2.5530 C   0  0  0  0  0  0  0  0  0  0  0  0
   12.8840   12.3670    3.4310 C   0  0  0  0  0  0  0  0  0  0  0  0
   12.0470   13.5620    3.8740 C   0  0  0  0  0  0  0  0  0  0  0  0
   12.7960   14.8600    4.1630 C   0  0  0  0  0  0  0  0  0  0  0  0
   14.1260   14.6850    4.8950 C   0  0  0  0  0  0  0  0  0  0  0  0
   20.2330   15.9610    6.2050 C   0  0  2  0  0  0  0  0  0  0  0  0
   21.0700   17.0040    5.4870 C   0  0  0  0  0  0  0  0  0  0  0  0
   20.6430   17.6500    4.3120 C   0  0  0  0  0  0  0  0  0  0  0  0
   21.4500   18.6080    3.6940 C   0  0  0  0  0  0  0  0  0  0  0  0
   22.6870   18.9410    4.2390 C   0  0  0  0  0  0  0  0  0  0  0  0
   23.1200   18.3210    5.4060 C   0  0  0  0  0  0  0  0  0  0  0  0
   22.3190   17.3640    6.0290 C   0  0  0  0  0  0  0  0  0  0  0  0
   20.9960   14.7130    6.4880 N   0  0  0  0  0  4  0  0  0  0  0  0
   17.7460   16.8868    6.8837 H   0  0  0  0  0  0  0  0  0  0  0  0
   15.5621   16.2163    5.8749 H   0  0  0  0  0  0  0  0  0  0  0  0
   19.7141   14.2986    4.0884 H   0  0  0  0  0  0  0  0  0  0  0  0
   16.1996   13.0641    2.7103 H   0  0  0  0  0  0  0  0  0  0  0  0
   15.3988   12.4131    4.2105 H   0  0  0  0  0  0  0  0  0  0  0  0
   13.8078   13.5501    1.8959 H   0  0  0  0  0  0  0  0  0  0  0  0
   14.3427   11.8109    1.9780 H   0  0  0  0  0  0  0  0  0  0  0  0
   12.2323   11.6841    2.8663 H   0  0  0  0  0  0  0  0  0  0  0  0
   13.2928   11.9197    4.3490 H   0  0  0  0  0  0  0  0  0  0  0  0
   11.3168   13.7698    3.0780 H   0  0  0  0  0  0  0  0  0  0  0  0
   11.6080   13.2635    4.8374 H   0  0  0  0  0  0  0  0  0  0  0  0
   12.9968   15.3597    3.2038 H   0  0  0  0  0  0  0  0  0  0  0  0
   12.1499   15.4470    4.8323 H   0  0  0  0  0  0  0  0  0  0  0  0
   14.3364   15.5872    5.4881 H   0  0  0  0  0  0  0  0  0  0  0  0
   14.0603   13.8090    5.5571 H   0  0  0  0  0  0  0  0  0  0  0  0
   19.9827   16.4580    7.1539 H   0  0  0  0  0  0  0  0  0  0  0  0
   19.6649   17.3982    3.8763 H   0  0  0  0  0  0  0  0  0  0  0  0
   21.1067   19.1014    2.7728 H   0  0  0  0  0  0  0  0  0  0  0  0
   23.3210   19.6935    3.7472 H   0  0  0  0  0  0  0  0  0  0  0  0
   24.0961   18.5858    5.8386 H   0  0  0  0  0  0  0  0  0  0  0  0
   22.6674   16.8843    6.9556 H   0  0  0  0  0  0  0  0  0  0  0  0
   21.0756   14.5828    7.5066 H   0  0  0  0  0  0  0  0  0  0  0  0
   20.5024   13.9080    6.0765 H   0  0  0  0  0  0  0  0  0  0  0  0
   21.9375   14.7854    6.0765 H   0  0  0  0  0  0  0  0  0  0  0  0
  2  1  2  0
  3  2  1  0
  4  3  2  0
  5  4  1  0
  6  5  2  0
  6  1  1  0
  7  4  1  0
  8  7  1  0
  9  8  1  0
 10  9  1  0
 11 10  1  0
 12 11  1  0
 13 12  1  0
 13  7  1  0
 14  1  1  0
 15 14  1  0
 16 15  2  0
 17 16  1  0
 18 17  2  0
 19 18  1  0
 20 15  1  0
 20 19  2  0
 21 14  1  0
  2 22  1  0
  3 23  1  0
  6 24  1  0
  8 25  1  0
  8 26  1  0
  9 27  1  0
  9 28  1  0
 10 29  1  0
 10 30  1  0
 11 31  1  0
 11 32  1  0
 12 33  1  0
 12 34  1  0
 13 35  1  0
 13 36  1  0
 14 37  1  1
 16 38  1  0
 17 39  1  0
 18 40  1  0
 19 41  1  0
 20 42  1  0
 21 43  1  0
 21 44  1  0
 21 45  1  0
M  CHG  1  21   1
M  END
$$$$
=
     RDKit          3D

 31 32  0  0  0  0  0  0  0  0999 V2000
   15.0110   14.3280    3.9810 C   0  0  0  0  0  0  0  0  0  0  0  0
   16.0270   15.0010    4.6530 C   0  0  0  0  0  0  0  0  0  0  0  0
   17.3600   14.6590    4.3900 C   0  0  0  0  0  0  0  0  0  0  0  0
   17.6470   13.6400    3.4890 C   0  0  0  0  0  0  0  0  0  0  0  0
   16.6700   12.9950    2.8190 N   0  0  0  0  0  0  0  0  0  0  0  0
   15.3950   13.3490    3.0850 C   0  0  0  0  0  0  0  0  0  0  0  0
   18.9360   13.2590    3.1440 N   0  0  0  0  0  0  0  0  0  0  0  0
   18.6690   15.4820    5.2450 S   0  0  0  0  0  6  0  0  0  0  0  0
   18.0430   16.3550    6.2240 O   0  0  0  0  0  0  0  0  0  0  0  0
   19.5700   14.4260    5.6770 O   0  0  0  0  0  0  0  0  0  0  0  0
   19.5650   16.5570    4.1380 C   0  0  0  0  0  0  0  0  0  0  0  0
   19.0980   16.7340    2.8270 C   0  0  0  0  0  0  0  0  0  0  0  0
   19.7960   17.5540    1.9410 C   0  0  0  0  0  0  0  0  0  0  0  0
   20.9570   18.1980    2.3570 C   0  0  0  0  0  0  0  0  0  0  0  0
   21.4190   18.0340    3.6630 C   0  0  0  0  0  0  0  0  0  0  0  0
   20.7270   17.2240    4.5790 C   0  0  0  0  0  0  0  0  0  0  0  0
   21.2740   17.0890    5.9730 C   0  0  0  0  0  0  0  0  0  0  0  0
   12.5130   14.9000    4.3510 N   0  0  0  0  0  0  0  0  0  0  0  0
   13.6380   14.6460    4.2110 C   0  0  0  0  0  0  0  0  0  0  0  0
   14.4910   12.6370    2.3670 O   0  0  0  0  0  0  0  0  0  0  0  0
   15.7869   15.7904    5.3805 H   0  0  0  0  0  0  0  0  0  0  0  0
   19.0840   12.4952    2.4691 H   0  0  0  0  0  0  0  0  0  0  0  0
   19.7447   13.7401    3.5629 H   0  0  0  0  0  0  0  0  0  0  0  0
   18.1800   16.2253    2.4975 H   0  0  0  0  0  0  0  0  0  0  0  0
   19.4287   17.6917    0.9133 H   0  0  0  0  0  0  0  0  0  0  0  0
   21.5117   18.8377    1.6547 H   0  0  0  0  0  0  0  0  0  0  0  0
   22.3390   18.5466    3.9805 H   0  0  0  0  0  0  0  0  0  0  0  0
   20.4739   17.2865    6.7016 H   0  0  0  0  0  0  0  0  0  0  0  0
   21.6589   16.0689    6.1186 H   0  0  0  0  0  0  0  0  0  0  0  0
   22.0894   17.8129    6.1186 H   0  0  0  0  0  0  0  0  0  0  0  0
   14.7993   11.9420    1.7329 H   0  0  0  0  0  0  0  0  0  0  0  0
  2  1  2  0
  3  2  1  0
  4  3  2  0
  5  4  1  0
  6  1  1  0
  6  5  2  0
  7  4  1  0
  8  3  1  0
  9  8  2  0
 10  8  2  0
 11  8  1  0
 12 11  2  0
 13 12  1  0
 14 13  2  0
 15 14  1  0
 16 15  2  0
 16 11  1  0
 17 16  1  0
 19 18  3  0
 19  1  1  0
 20  6  1  0
  2 21  1  0
  7 22  1  0
  7 23  1  0
 12 24  1  0
 13 25  1  0
 14 26  1  0
 15 27  1  0
 17 28  1  0
 17 29  1  0
 17 30  1  0
 20 31  1  0
M  END
$$$$
=
     RDKit          3D

 21 20  0  0  0  0  0  0  0  0999 V2000
   21.0030   15.3630    5.8010 C   0  0  1  0  0  0  0  0  0  0  0  0
   21.8170   16.6540    5.6290 C   0  0  0  0  0  0  0  0  0  0  0  0
   22.6070   17.0850    6.4560 O   0  0  0  0  0  0  0  0  0  0  0  0
   22.0330   18.5610    4.2850 C   0  0  0  0  0  0  0  0  0  0  0  0
   21.4960   17.2440    4.4440 O   0  0  0  0  0  0  0  0  0  0  0  0
   21.2800   14.6710    7.0130 O   0  0  0  0  0  0  0  0  0  0  0  0
   19.5060   15.6850    5.7890 C   0  0  0  0  0  0  0  0  0  0  0  0
   18.7710   14.8870    4.7250 C   0  0  0  0  0  0  0  0  0  0  0  0
   19.4900   15.0220    3.4310 N   0  0  0  0  0  4  0  0  0  0  0  0
   21.2933   14.7151    4.9608 H   0  0  0  0  0  0  0  0  0  0  0  0
   22.2141   19.0051    5.2749 H   0  0  0  0  0  0  0  0  0  0  0  0
   22.9805   18.5060    3.7289 H   0  0  0  0  0  0  0  0  0  0  0  0
   21.3172   19.1842    3.7289 H   0  0  0  0  0  0  0  0  0  0  0  0
   21.0488   15.2486    7.7831 H   0  0  0  0  0  0  0  0  0  0  0  0
   19.0808   15.4429    6.7742 H   0  0  0  0  0  0  0  0  0  0  0  0
   19.3858   16.7545    5.5615 H   0  0  0  0  0  0  0  0  0  0  0  0
   18.7362   13.8273    5.0180 H   0  0  0  0  0  0  0  0  0  0  0  0
   17.7445   15.2681    4.6196 H   0  0  0  0  0  0  0  0  0  0  0  0
   20.4869   15.2092    3.6100 H   0  0  0  0  0  0  0  0  0  0  0  0
   19.3958   14.1486    2.8932 H   0  0  0  0  0  0  0  0  0  0  0  0
   19.0855   15.8017    2.8932 H   0  0  0  0  0  0  0  0  0  0  0  0
  2  1  1  0
  3  2  2  0
  5  4  1  0
  5  2  1  0
  6  1  1  0
  7  1  1  0
  8  7  1  0
  9  8  1  0
  1 10  1  6
  4 11  1  0
  4 12  1  0
  4 13  1  0
  6 14  1  0
  7 15  1  0
  7 16  1  0
  8 17  1  0
  8 18  1  0
  9 19  1  0
  9 20  1  0
  9 21  1  0
M  CHG  1   9   1
M  END
$$$$
=
     RDKit          3D

 30 31  0  0  0  0  0  0  0  0999 V2000
   16.2460   16.0520    5.8860 N   0  0  0  0  0  4  0  0  0  0  0  0
   15.2580   16.0900    4.7770 C   0  0  0  0  0  0  0  0  0  0  0  0
   17.2970   14.9180    3.2740 F   0  0  0  0  0  0  0  0  0  0  0  0
   16.1660   14.2080    3.3930 C   0  0  0  0  0  0  0  0  0  0  0  0
   16.0700   12.9670    2.7750 C   0  0  0  0  0  0  0  0  0  0  0  0
   14.8830   12.2460    2.8760 C   0  0  0  0  0  0  0  0  0  0  0  0
   13.8050   12.7730    3.5910 C   0  0  0  0  0  0  0  0  0  0  0  0
   13.9100   14.0220    4.2090 C   0  0  0  0  0  0  0  0  0  0  0  0
   15.0990   14.7550    4.1140 C   0  0  0  0  0  0  0  0  0  0  0  0
   17.3100   17.1030    5.8330 C   0  0  0  0  0  0  0  0  0  0  0  0
   18.6870   16.4830    5.8400 C   0  0  0  0  0  0  0  0  0  0  0  0
   18.9120   15.2300    6.3970 C   0  0  0  0  0  0  0  0  0  0  0  0
   20.2010   14.7080    6.3450 C   0  0  0  0  0  0  0  0  0  0  0  0
   21.2160   15.4410    5.7370 C   0  0  0  0  0  0  0  0  0  0  0  0
   20.9050   16.6770    5.2010 C   0  0  0  0  0  0  0  0  0  0  0  0
   19.6640   17.2200    5.2370 N   0  0  0  0  0  0  0  0  0  0  0  0
   15.7334   16.1630    6.7724 H   0  0  0  0  0  0  0  0  0  0  0  0
   16.7341   15.1490    5.8009 H   0  0  0  0  0  0  0  0  0  0  0  0
   14.2840   16.4031    5.1810 H   0  0  0  0  0  0  0  0  0  0  0  0
   15.6254   16.8004    4.0218 H   0  0  0  0  0  0  0  0  0  0  0  0
   16.9224   12.5587    2.2122 H   0  0  0  0  0  0  0  0  0  0  0  0
   14.7943   11.2618    2.3929 H   0  0  0  0  0  0  0  0  0  0  0  0
   12.8682   12.2017    3.6681 H   0  0  0  0  0  0  0  0  0  0  0  0
   13.0570   14.4299    4.7711 H   0  0  0  0  0  0  0  0  0  0  0  0
   17.1864   17.6933    4.9131 H   0  0  0  0  0  0  0  0  0  0  0  0
   17.2114   17.7453    6.7206 H   0  0  0  0  0  0  0  0  0  0  0  0
   18.0929   14.6656    6.8666 H   0  0  0  0  0  0  0  0  0  0  0  0
   20.4164   13.7217    6.7819 H   0  0  0  0  0  0  0  0  0  0  0  0
   22.2414   15.0463    5.6842 H   0  0  0  0  0  0  0  0  0  0  0  0
   21.7096   17.2514    4.7186 H   0  0  0  0  0  0  0  0  0  0  0  0
  2  1  1  0
  4  3  1  0
  5  4  2  0
  6  5  1  0
  7  6  2  0
  8  7  1  0
  9  8  2  0
  9  4  1  0
  9  2  1  0
 10  1  1  0
 11 10  1  0
 12 11  2  0
 13 12  1  0
 14 13  2  0
 15 14  1  0
 16 15  2  0
 16 11  1  0
  1 17  1  0
  1 18  1  0
  2 19  1  0
  2 20  1  0
  5 21  1  0
  6 22  1  0
  7 23  1  0
  8 24  1  0
 10 25  1  0
 10 26  1  0
 12 27  1  0
 13 28  1  0
 14 29  1  0
 15 30  1  0
M  CHG  1   1   1
M  END
$$$$
=
     RDKit          3D

 30 30  0  0  0  0  0  0  0  0999 V2000
   18.5280   14.3640    3.8470 C   0  0  0  0  0  0  0  0  0  0  0  0
   17.2020   15.1160    3.7890 C   0  0  1  0  0  0  0  0  0  0  0  0
   16.0510   14.2210    3.3630 C   0  0  0  0  0  0  0  0  0  0  0  0
   14.8260   14.9240    3.8810 N   0  0  0  0  0  4  0  0  0  0  0  0
   15.2580   15.9820    4.8550 C   0  0  0  0  0  0  0  0  0  0  0  0
   16.7140   15.6620    5.1270 C   0  0  0  0  0  0  0  0  0  0  0  0
   19.5760   15.1500    3.2630 O   0  0  0  0  0  0  0  0  0  0  0  0
   20.7860   15.5650    5.1580 O   0  0  0  0  0  0  0  0  0  0  0  0
   20.2710   15.9540    4.1180 C   0  0  0  0  0  0  0  0  0  0  0  0
   20.2640   17.3990    3.6620 C   0  0  0  0  0  0  0  0  0  0  0  0
   19.5700   18.2700    4.7010 C   0  0  0  0  0  0  0  0  0  0  0  0
   19.6300   17.5490    2.2830 C   0  0  0  0  0  0  0  0  0  0  0  0
   18.7776   14.1503    4.8968 H   0  0  0  0  0  0  0  0  0  0  0  0
   18.4300   13.4251    3.2824 H   0  0  0  0  0  0  0  0  0  0  0  0
   17.4347   15.9245    3.0803 H   0  0  0  0  0  0  0  0  0  0  0  0
   16.0137   14.1282    2.2676 H   0  0  0  0  0  0  0  0  0  0  0  0
   16.1463   13.1972    3.7538 H   0  0  0  0  0  0  0  0  0  0  0  0
   14.3184   15.3596    3.0977 H   0  0  0  0  0  0  0  0  0  0  0  0
   14.2032   14.2490    4.3473 H   0  0  0  0  0  0  0  0  0  0  0  0
   15.1543   16.9844    4.4141 H   0  0  0  0  0  0  0  0  0  0  0  0
   14.6487   15.9867    5.7708 H   0  0  0  0  0  0  0  0  0  0  0  0
   17.2710   16.5669    5.4114 H   0  0  0  0  0  0  0  0  0  0  0  0
   16.8543   14.9570    5.9596 H   0  0  0  0  0  0  0  0  0  0  0  0
   21.3056   17.7396    3.5671 H   0  0  0  0  0  0  0  0  0  0  0  0
   19.8438   17.9264    5.7094 H   0  0  0  0  0  0  0  0  0  0  0  0
   19.8849   19.3160    4.5720 H   0  0  0  0  0  0  0  0  0  0  0  0
   18.4801   18.1966    4.5720 H   0  0  0  0  0  0  0  0  0  0  0  0
   18.5651   17.8010    2.3945 H   0  0  0  0  0  0  0  0  0  0  0  0
   20.1406   18.3511    1.7300 H   0  0  0  0  0  0  0  0  0  0  0  0
   19.7270   16.6031    1.7300 H   0  0  0  0  0  0  0  0  0  0  0  0
  2  1  1  0
  3  2  1  0
  4  3  1  0
  5  4  1  0
  6  5  1  0
  6  2  1  0
  7  1  1  0
  9  8  2  0
  9  7  1  0
 10  9  1  0
 11 10  1  0
 12 10  1  0
  1 13  1  0
  1 14  1  0
  2 15  1  6
  3 16  1  0
  3 17  1  0
  4 18  1  0
  4 19  1  0
  5 20  1  0
  5 21  1  0
  6 22  1  0
  6 23  1  0
 10 24  1  0
 11 25  1  0
 11 26  1  0
 11 27  1  0
 12 28  1  0
 12 29  1  0
 12 30  1  0
M  CHG  1   4   1
M  END
$$$$
=
     RDKit          3D

 43 45  0  0  0  0  0  0  0  0999 V2000
   17.4410   15.6860    4.9310 C   0  0  0  0  0  0  0  0  0  0  0  0
   17.2120   15.3900    3.5830 C   0  0  0  0  0  0  0  0  0  0  0  0
   15.9620   14.9370    3.1450 C   0  0  0  0  0  0  0  0  0  0  0  0
   14.9150   14.7510    4.0480 C   0  0  0  0  0  0  0  0  0  0  0  0
   15.1320   15.0480    5.3990 C   0  0  0  0  0  0  0  0  0  0  0  0
   16.3650   15.5460    5.8370 C   0  0  0  0  0  0  0  0  0  0  0  0
   22.3230   18.0470    5.4430 C   0  0  0  0  0  0  0  0  0  0  0  0
   21.3490   17.2070    4.6170 C   0  0  0  0  0  0  0  0  0  0  0  0
   21.1350   15.8330    5.2750 C   0  0  0  0  0  0  0  0  0  0  0  0
   19.7780   15.2460    4.8990 C   0  0  0  0  0  0  0  0  0  0  0  0
   18.7000   16.1080    5.4250 N   0  0  0  0  0  0  0  0  0  0  0  0
   18.9590   17.5590    5.4150 C   0  0  0  0  0  0  0  0  0  0  0  0
   20.0180   17.9450    4.3850 C   0  0  0  0  0  0  0  0  0  0  0  0
   13.6330   14.2760    3.6940 N   0  0  0  0  0  0  0  0  0  0  0  0
   13.2070   12.9580    3.5900 C   0  0  0  0  0  0  0  0  0  0  0  0
   13.9120   11.9870    3.8470 O   0  0  0  0  0  0  0  0  0  0  0  0
   11.8130   12.8240    3.1570 C   0  0  0  0  0  0  0  0  0  0  0  0
   11.2310   11.9560    2.2470 C   0  0  0  0  0  0  0  0  0  0  0  0
    9.8250   12.1610    2.1100 C   0  0  0  0  0  0  0  0  0  0  0  0
    9.3710   13.1700    2.9240 C   0  0  0  0  0  0  0  0  0  0  0  0
   10.6270   13.8600    3.8510 S   0  0  0  0  0  0  0  0  0  0  0  0
   16.5840   15.7600    7.2200 N   0  0  0  0  0  0  0  0  0  0  0  0
   18.0275   15.5153    2.8554 H   0  0  0  0  0  0  0  0  0  0  0  0
   15.8036   14.7254    2.0772 H   0  0  0  0  0  0  0  0  0  0  0  0
   14.3225   14.8878    6.1263 H   0  0  0  0  0  0  0  0  0  0  0  0
   22.1322   17.8825    6.5138 H   0  0  0  0  0  0  0  0  0  0  0  0
   23.3554   17.7514    5.2048 H   0  0  0  0  0  0  0  0  0  0  0  0
   22.1823   19.1116    5.2048 H   0  0  0  0  0  0  0  0  0  0  0  0
   21.7939   17.0422    3.6246 H   0  0  0  0  0  0  0  0  0  0  0  0
   21.9275   15.1476    4.9402 H   0  0  0  0  0  0  0  0  0  0  0  0
   21.1684   15.9610    6.3670 H   0  0  0  0  0  0  0  0  0  0  0  0
   19.6964   15.1857    3.8037 H   0  0  0  0  0  0  0  0  0  0  0  0
   19.6837   14.2393    5.3323 H   0  0  0  0  0  0  0  0  0  0  0  0
   18.0230   18.0850    5.1759 H   0  0  0  0  0  0  0  0  0  0  0  0
   19.3332   17.8437    6.4094 H   0  0  0  0  0  0  0  0  0  0  0  0
   19.6441   17.6947    3.3812 H   0  0  0  0  0  0  0  0  0  0  0  0
   20.2079   19.0240    4.4831 H   0  0  0  0  0  0  0  0  0  0  0  0
   12.9263   14.9962    3.4873 H   0  0  0  0  0  0  0  0  0  0  0  0
   11.7922   11.1912    1.6901 H   0  0  0  0  0  0  0  0  0  0  0  0
    9.1815   11.5800    1.4330 H   0  0  0  0  0  0  0  0  0  0  0  0
    8.3213   13.4951    2.9727 H   0  0  0  0  0  0  0  0  0  0  0  0
   17.4893   16.1262    7.5475 H   0  0  0  0  0  0  0  0  0  0  0  0
   15.8379   15.5494    7.8982 H   0  0  0  0  0  0  0  0  0  0  0  0
  2  1  2  0
  3  2  1  0
  4  3  2  0
  5  4  1  0
  6  5  2  0
  6  1  1  0
  8  7  1  0
  9  8  1  0
 10  9  1  0
 11 10  1  0
 11  1  1  0
 12 11  1  0
 13 12  1  0
 13  8  1  0
 14  4  1  0
 15 14  1  0
 16 15  2  0
 17 15  1  0
 18 17  2  0
 19 18  1  0
 20 19  2  0
 21 20  1  0
 21 17  1  0
 22  6  1  0
  2 23  1  0
  3 24  1  0
  5 25  1  0
  7 26  1  0
  7 27  1  0
  7 28  1  0
  8 29  1  0
  9 30  1  0
  9 31  1  0
 10 32  1  0
 10 33  1  0
 12 34  1  0
 12 35  1  0
 13 36  1  0
 13 37  1  0
 14 38  1  0
 18 39  1  0
 19 40  1  0
 20 41  1  0
 22 42  1  0
 22 43  1  0
M  END
$$$$
=
     RDKit          3D

 39 41  0  0  0  0  0  0  0  0999 V2000
   18.7250   16.0330    4.5530 C   0  0  0  0  0  0  0  0  0  0  0  0
   18.7010   16.5580    3.3210 N   0  0  0  0  0  0  0  0  0  0  0  0
   19.9200   17.1070    3.1480 N   0  0  0  0  0  0  0  0  0  0  0  0
   20.7210   16.9450    4.2390 C   0  0  0  0  0  0  0  0  0  0  0  0
   19.9830   16.2350    5.1630 C   0  0  0  0  0  0  0  0  0  0  0  0
   20.4810   15.8460    6.5000 C   0  0  0  0  0  0  0  0  0  0  0  0
   21.9860   16.0150    6.5390 N   0  0  0  0  0  4  0  0  0  0  0  0
   22.4730   17.3190    5.9450 C   0  0  0  0  0  0  0  0  0  0  0  0
   22.1180   17.4140    4.4410 C   0  0  0  0  0  0  0  0  0  0  0  0
   20.2150   17.7720    1.9000 C   0  0  0  0  0  0  0  0  0  0  0  0
   17.5270   15.3370    5.1210 C   0  0  0  0  0  0  0  0  0  0  0  0
   16.4350   15.3910    4.1940 O   0  0  0  0  0  0  0  0  0  0  0  0
   16.1820   14.1160    3.6080 C   0  0  0  0  0  0  0  0  0  0  0  0
   14.9240   12.0050    2.1910 F   0  0  0  0  0  0  0  0  0  0  0  0
   14.1360   12.8220    2.9070 C   0  0  0  0  0  0  0  0  0  0  0  0
   12.7630   12.5920    2.9080 C   0  0  0  0  0  0  0  0  0  0  0  0
   11.9270   13.4160    3.6590 C   0  0  0  0  0  0  0  0  0  0  0  0
   12.4710   14.4630    4.4020 C   0  0  0  0  0  0  0  0  0  0  0  0
   13.8500   14.6910    4.3950 C   0  0  0  0  0  0  0  0  0  0  0  0
   14.7010   13.8700    3.6420 C   0  0  0  0  0  0  0  0  0  0  0  0
   20.0188   16.4865    7.2656 H   0  0  0  0  0  0  0  0  0  0  0  0
   20.2215   14.7960    6.7001 H   0  0  0  0  0  0  0  0  0  0  0  0
   22.2916   15.9723    7.5217 H   0  0  0  0  0  0  0  0  0  0  0  0
   22.3865   15.2581    5.9666 H   0  0  0  0  0  0  0  0  0  0  0  0
   21.9997   18.1560    6.4793 H   0  0  0  0  0  0  0  0  0  0  0  0
   23.5672   17.3629    6.0489 H   0  0  0  0  0  0  0  0  0  0  0  0
   22.8060   16.7825    3.8597 H   0  0  0  0  0  0  0  0  0  0  0  0
   22.2107   18.4570    4.1040 H   0  0  0  0  0  0  0  0  0  0  0  0
   20.6532   18.7598    2.1055 H   0  0  0  0  0  0  0  0  0  0  0  0
   20.9292   17.1671    1.3221 H   0  0  0  0  0  0  0  0  0  0  0  0
   19.2872   17.8955    1.3221 H   0  0  0  0  0  0  0  0  0  0  0  0
   17.7799   14.2857    5.3231 H   0  0  0  0  0  0  0  0  0  0  0  0
   17.2301   15.8389    6.0537 H   0  0  0  0  0  0  0  0  0  0  0  0
   16.5372   14.1075    2.5669 H   0  0  0  0  0  0  0  0  0  0  0  0
   16.7109   13.3294    4.1661 H   0  0  0  0  0  0  0  0  0  0  0  0
   12.3404   11.7645    2.3193 H   0  0  0  0  0  0  0  0  0  0  0  0
   10.8410   13.2410    3.6656 H   0  0  0  0  0  0  0  0  0  0  0  0
   11.8118   15.1126    4.9965 H   0  0  0  0  0  0  0  0  0  0  0  0
   14.2701   15.5197    4.9839 H   0  0  0  0  0  0  0  0  0  0  0  0
  2  1  2  0
  3  2  1  0
  4  3  1  0
  5  1  1  0
  5  4  2  0
  6  5  1  0
  7  6  1  0
  8  7  1  0
  9  4  1  0
  9  8  1  0
 10  3  1  0
 11  1  1  0
 12 11  1  0
 13 12  1  0
 15 14  1  0
 16 15  2  0
 17 16  1  0
 18 17  2  0
 19 18  1  0
 20 19  2  0
 20 15  1  0
 20 13  1  0
  6 21  1  0
  6 22  1  0
  7 23  1  0
  7 24  1  0
  8 25  1  0
  8 26  1  0
  9 27  1  0
  9 28  1  0
 10 29  1  0
 10 30  1  0
 10 31  1  0
 11 32  1  0
 11 33  1  0
 13 34  1  0
 13 35  1  0
 16 36  1  0
 17 37  1  0
 18 38  1  0
 19 39  1  0
M  CHG  1   7   1
M  END
$$$$
=
     RDKit          3D

 43 43  0  0  0  0  0  0  0  0999 V2000
   17.6590   14.4360    3.9900 C   0  0  0  0  0  0  0  0  0  0  0  0
   18.4160   13.5540    3.5820 O   0  0  0  0  0  0  0  0  0  0  0  0
   18.1310   15.3670    4.9300 N   0  0  0  0  0  0  0  0  0  0  0  0
   19.4240   15.0200    5.5410 C   0  0  0  0  0  0  0  0  0  0  0  0
   20.5930   15.5080    4.6720 C   0  0  0  0  0  0  0  0  0  0  0  0
   20.4400   16.9920    4.4100 N   0  0  0  0  0  4  0  0  0  0  0  0
   19.0980   17.3600    3.8190 C   0  0  0  0  0  0  0  0  0  0  0  0
   17.9320   16.8160    4.6910 C   0  0  2  0  0  0  0  0  0  0  0  0
   17.7860   17.5960    6.0000 C   0  0  0  0  0  0  0  0  0  0  0  0
   16.2130   14.5890    3.4810 C   0  0  1  0  0  0  0  0  0  0  0  0
   15.8430   13.4390    2.5150 C   0  0  0  0  0  0  0  0  0  0  0  0
   15.3140   12.1730    3.1800 C   0  0  0  0  0  0  0  0  0  0  0  0
   15.2310   14.7540    4.6600 C   0  0  0  0  0  0  0  0  0  0  0  0
   13.8540   15.2730    4.2320 C   0  0  0  0  0  0  0  0  0  0  0  0
   12.0030   13.6660    3.5070 C   0  0  0  0  0  0  0  0  0  0  0  0
   12.7030   14.3610    4.6660 C   0  0  0  0  0  0  0  0  0  0  0  0
   19.4914   15.4919    6.5324 H   0  0  0  0  0  0  0  0  0  0  0  0
   19.4868   13.9254    5.6297 H   0  0  0  0  0  0  0  0  0  0  0  0
   21.5421   15.3239    5.1967 H   0  0  0  0  0  0  0  0  0  0  0  0
   20.5921   14.9641    3.7159 H   0  0  0  0  0  0  0  0  0  0  0  0
   20.5534   17.4948    5.3018 H   0  0  0  0  0  0  0  0  0  0  0  0
   21.1591   17.2558    3.7214 H   0  0  0  0  0  0  0  0  0  0  0  0
   19.0205   18.4556    3.7592 H   0  0  0  0  0  0  0  0  0  0  0  0
   19.0232   16.9108    2.8177 H   0  0  0  0  0  0  0  0  0  0  0  0
   16.9872   16.9575    4.1457 H   0  0  0  0  0  0  0  0  0  0  0  0
   17.9142   16.9111    6.8512 H   0  0  0  0  0  0  0  0  0  0  0  0
   18.5523   18.3839    6.0447 H   0  0  0  0  0  0  0  0  0  0  0  0
   16.7866   18.0535    6.0447 H   0  0  0  0  0  0  0  0  0  0  0  0
   16.1337   15.5137    2.8906 H   0  0  0  0  0  0  0  0  0  0  0  0
   15.0695   13.8095    1.8263 H   0  0  0  0  0  0  0  0  0  0  0  0
   16.7786   13.1505    2.0136 H   0  0  0  0  0  0  0  0  0  0  0  0
   15.3612   12.2859    4.2732 H   0  0  0  0  0  0  0  0  0  0  0  0
   14.2709   12.0062    2.8733 H   0  0  0  0  0  0  0  0  0  0  0  0
   15.9283   11.3136    2.8733 H   0  0  0  0  0  0  0  0  0  0  0  0
   15.1002   13.7756    5.1454 H   0  0  0  0  0  0  0  0  0  0  0  0
   15.6633   15.5002    5.3429 H   0  0  0  0  0  0  0  0  0  0  0  0
   13.7005   16.2662    4.6791 H   0  0  0  0  0  0  0  0  0  0  0  0
   13.8457   15.3085    3.1326 H   0  0  0  0  0  0  0  0  0  0  0  0
   11.2739   12.9421    3.8999 H   0  0  0  0  0  0  0  0  0  0  0  0
   11.4818   14.4141    2.8917 H   0  0  0  0  0  0  0  0  0  0  0  0
   12.7474   13.1394    2.8917 H   0  0  0  0  0  0  0  0  0  0  0  0
   11.9618   14.9696    5.2048 H   0  0  0  0  0  0  0  0  0  0  0  0
   13.1380   13.5729    5.2981 H   0  0  0  0  0  0  0  0  0  0  0  0
  2  1  2  0
  3  1  1  0
  4  3  1  0
  5  4  1  0
  6  5  1  0
  7  6  1  0
  8  3  1  0
  8  7  1  0
  9  8  1  0
 10  1  1  0
 11 10  1  0
 12 11  1  0
 13 10  1  0
 14 13  1  0
 16 15  1  0
 16 14  1  0
  4 17  1  0
  4 18  1  0
  5 19  1  0
  5 20  1  0
  6 21  1  0
  6 22  1  0
  7 23  1  0
  7 24  1  0
  8 25  1  6
  9 26  1  0
  9 27  1  0
  9 28  1  0
 10 29  1  6
 11 30  1  0
 11 31  1  0
 12 32  1  0
 12 33  1  0
 12 34  1  0
 13 35  1  0
 13 36  1  0
 14 37  1  0
 14 38  1  0
 15 39  1  0
 15 40  1  0
 15 41  1  0
 16 42  1  0
 16 43  1  0
M  CHG  1   6   1
M  END
$$$$
=
     RDKit          3D

 27 27  0  0  0  0  0  0  0  0999 V2000
   19.6850   15.3940    5.5290 C   0  0  0  0  0  0  0  0  0  0  0  0
   18.4970   16.0930    5.7740 C   0  0  0  0  0  0  0  0  0  0  0  0
   17.3390   15.7960    5.0440 C   0  0  0  0  0  0  0  0  0  0  0  0
   16.0830   16.5890    5.2540 C   0  0  0  0  0  0  0  0  0  0  0  0
   17.3890   14.7940    4.0650 C   0  0  0  0  0  0  0  0  0  0  0  0
   18.5500   14.0460    3.8510 C   0  0  0  0  0  0  0  0  0  0  0  0
   19.7070   14.3860    4.5560 C   0  0  0  0  0  0  0  0  0  0  0  0
   18.6130   13.1290    2.7950 N   0  0  0  0  0  0  0  0  0  0  0  0
   20.9480   15.6860    6.2610 C   0  0  0  0  0  0  0  0  0  0  0  0
   21.0940   15.4970    7.4590 O   0  0  0  0  0  0  0  0  0  0  0  0
   21.8870   16.1790    5.4180 O   0  0  0  0  0  0  0  0  0  0  0  0
   22.2830   17.5190    5.7200 C   0  0  0  0  0  0  0  0  0  0  0  0
   21.1660   18.1550    3.5220 C   0  0  0  0  0  0  0  0  0  0  0  0
   21.8150   18.4680    4.6520 C   0  0  0  0  0  0  0  0  0  0  0  0
   18.4728   16.8790    6.5432 H   0  0  0  0  0  0  0  0  0  0  0  0
   15.8988   16.7053    6.3322 H   0  0  0  0  0  0  0  0  0  0  0  0
   16.1941   17.5810    4.7919 H   0  0  0  0  0  0  0  0  0  0  0  0
   15.2351   16.0621    4.7919 H   0  0  0  0  0  0  0  0  0  0  0  0
   16.4972   14.5925    3.4534 H   0  0  0  0  0  0  0  0  0  0  0  0
   20.6473   13.8557    4.3446 H   0  0  0  0  0  0  0  0  0  0  0  0
   19.4704   12.5796    2.6405 H   0  0  0  0  0  0  0  0  0  0  0  0
   17.8019   13.0038    2.1726 H   0  0  0  0  0  0  0  0  0  0  0  0
   21.8441   17.8161    6.6839 H   0  0  0  0  0  0  0  0  0  0  0  0
   23.3811   17.5591    5.7705 H   0  0  0  0  0  0  0  0  0  0  0  0
   20.8762   18.9477    2.8165 H   0  0  0  0  0  0  0  0  0  0  0  0
   20.9231   17.1054    3.3000 H   0  0  0  0  0  0  0  0  0  0  0  0
   22.0283   19.5346    4.8158 H   0  0  0  0  0  0  0  0  0  0  0  0
  2  1  2  0
  3  2  1  0
  4  3  1  0
  5  3  2  0
  6  5  1  0
  7  6  2  0
  7  1  1  0
  8  6  1  0
  9  1  1  0
 10  9  2  0
 11  9  1  0
 12 11  1  0
 14 13  2  3
 14 12  1  0
  2 15  1  0
  4 16  1  0
  4 17  1  0
  4 18  1  0
  5 19  1  0
  7 20  1  0
  8 21  1  0
  8 22  1  0
 12 23  1  0
 12 24  1  0
 13 25  1  0
 13 26  1  0
 14 27  1  0
M  END
$$$$
=
     RDKit          3D

 39 40  0  0  0  0  0  0  0  0999 V2000
   18.5860   15.5090    5.2200 C   0  0  0  0  0  0  0  0  0  0  0  0
   17.7020   16.2860    5.9740 C   0  0  0  0  0  0  0  0  0  0  0  0
   16.3400   16.3260    5.6520 C   0  0  0  0  0  0  0  0  0  0  0  0
   15.8420   15.6000    4.5610 C   0  0  0  0  0  0  0  0  0  0  0  0
   16.7120   14.8060    3.8100 C   0  0  0  0  0  0  0  0  0  0  0  0
   18.0640   14.7340    4.1550 C   0  0  0  0  0  0  0  0  0  0  0  0
   14.3880   15.6990    4.2610 C   0  0  0  0  0  0  0  0  0  0  0  0
   13.8250   16.7830    4.1580 O   0  0  0  0  0  0  0  0  0  0  0  0
   13.6920   14.5390    4.0640 N   0  0  0  0  0  0  0  0  0  0  0  0
   18.9510   13.9810    3.3380 N   0  0  0  0  0  0  0  0  0  0  0  0
   20.3620   14.6470    6.6170 C   0  0  0  0  0  0  0  0  0  0  0  0
   19.9810   15.4660    5.4640 N   0  0  0  0  0  0  0  0  0  0  0  0
   20.6380   16.7850    5.2910 C   0  0  0  0  0  0  0  0  0  0  0  0
   22.1090   16.8020    5.7250 C   0  0  0  0  0  0  0  0  0  0  0  0
   22.7030   18.2130    5.6400 C   0  0  0  0  0  0  0  0  0  0  0  0
   22.1050   19.0630    4.5180 C   0  0  0  0  0  0  0  0  0  0  0  0
   21.5840   18.2080    3.3710 C   0  0  0  0  0  0  0  0  0  0  0  0
   20.4820   17.2500    3.8280 C   0  0  0  0  0  0  0  0  0  0  0  0
   18.0790   16.8702    6.8264 H   0  0  0  0  0  0  0  0  0  0  0  0
   15.6540   16.9330    6.2610 H   0  0  0  0  0  0  0  0  0  0  0  0
   16.3330   14.2379    2.9477 H   0  0  0  0  0  0  0  0  0  0  0  0
   12.6841   14.5724    3.8545 H   0  0  0  0  0  0  0  0  0  0  0  0
   14.1755   13.6316    4.1251 H   0  0  0  0  0  0  0  0  0  0  0  0
   19.9498   13.9205    3.5820 H   0  0  0  0  0  0  0  0  0  0  0  0
   18.5948   13.4960    2.5021 H   0  0  0  0  0  0  0  0  0  0  0  0
   20.1130   15.1822    7.5452 H   0  0  0  0  0  0  0  0  0  0  0  0
   19.8152   13.6930    6.5859 H   0  0  0  0  0  0  0  0  0  0  0  0
   21.4439   14.4507    6.5859 H   0  0  0  0  0  0  0  0  0  0  0  0
   20.1292   17.4916    5.9633 H   0  0  0  0  0  0  0  0  0  0  0  0
   22.1795   16.4463    6.7635 H   0  0  0  0  0  0  0  0  0  0  0  0
   22.6766   16.1469    5.0477 H   0  0  0  0  0  0  0  0  0  0  0  0
   22.5229   18.7243    6.5972 H   0  0  0  0  0  0  0  0  0  0  0  0
   23.7750   18.0988    5.4216 H   0  0  0  0  0  0  0  0  0  0  0  0
   21.2727   19.6552    4.9261 H   0  0  0  0  0  0  0  0  0  0  0  0
   22.8998   19.7131    4.1236 H   0  0  0  0  0  0  0  0  0  0  0  0
   21.1794   18.8688    2.5902 H   0  0  0  0  0  0  0  0  0  0  0  0
   22.4210   17.6063    2.9870 H   0  0  0  0  0  0  0  0  0  0  0  0
   19.5129   17.7603    3.7264 H   0  0  0  0  0  0  0  0  0  0  0  0
   20.5499   16.3532    3.1946 H   0  0  0  0  0  0  0  0  0  0  0  0
  2  1  2  0
  3  2  1  0
  4  3  2  0
  5  4  1  0
  6  5  2  0
  6  1  1  0
  7  4  1  0
  8  7  2  0
  9  7  1  0
 10  6  1  0
 12  1  1  0
 12 11  1  0
 13 12  1  0
 14 13  1  0
 15 14  1  0
 16 15  1  0
 17 16  1  0
 18 17  1  0
 18 13  1  0
  2 19  1  0
  3 20  1  0
  5 21  1  0
  9 22  1  0
  9 23  1  0
 10 24  1  0
 10 25  1  0
 11 26  1  0
 11 27  1  0
 11 28  1  0
 13 29  1  0
 14 30  1  0
 14 31  1  0
 15 32  1  0
 15 33  1  0
 16 34  1  0
 16 35  1  0
 17 36  1  0
 17 37  1  0
 18 38  1  0
 18 39  1  0
M  END
$$$$
=
     RDKit          3D

 31 32  0  0  0  0  0  0  0  0999 V2000
   22.1330   18.1110    4.9780 C   0  0  0  0  0  0  0  0  0  0  0  0
   22.2150   17.3490    6.0810 C   0  0  0  0  0  0  0  0  0  0  0  0
   21.2820   16.2270    6.2470 C   0  0  0  0  0  0  0  0  0  0  0  0
   21.3060   15.5150    7.2430 O   0  0  0  0  0  0  0  0  0  0  0  0
   20.4020   16.0550    5.2290 N   0  0  0  0  0  0  0  0  0  0  0  0
   20.3990   16.8860    4.1600 C   0  0  0  0  0  0  0  0  0  0  0  0
   21.1980   17.8860    4.0020 N   0  0  0  0  0  0  0  0  0  0  0  0
   23.0030   19.1650    4.8070 N   0  0  0  0  0  0  0  0  0  0  0  0
   19.1710   16.4700    3.0060 S   0  0  0  0  0  0  0  0  0  0  0  0
   18.4950   14.9570    3.7690 C   0  0  0  0  0  0  0  0  0  0  0  0
   16.9680   14.8280    3.7160 C   0  0  0  0  0  0  0  0  0  0  0  0
   16.3510   13.2220    3.0810 S   0  0  0  0  0  0  0  0  0  0  0  0
   14.6040   13.4170    3.3740 C   0  0  0  0  0  0  0  0  0  0  0  0
   13.6760   12.5300    2.8210 C   0  0  0  0  0  0  0  0  0  0  0  0
   12.3110   12.6990    3.0630 C   0  0  0  0  0  0  0  0  0  0  0  0
   11.8690   13.7530    3.8640 C   0  0  0  0  0  0  0  0  0  0  0  0
   12.7910   14.6320    4.4280 C   0  0  0  0  0  0  0  0  0  0  0  0
   14.1560   14.4620    4.1870 C   0  0  0  0  0  0  0  0  0  0  0  0
   22.9715   17.5626    6.8504 H   0  0  0  0  0  0  0  0  0  0  0  0
   19.7252   15.2797    5.2699 H   0  0  0  0  0  0  0  0  0  0  0  0
   22.9423   19.7510    3.9621 H   0  0  0  0  0  0  0  0  0  0  0  0
   23.7143   19.3672    5.5240 H   0  0  0  0  0  0  0  0  0  0  0  0
   18.9284   14.0901    3.2487 H   0  0  0  0  0  0  0  0  0  0  0  0
   18.7614   15.0064    4.8351 H   0  0  0  0  0  0  0  0  0  0  0  0
   16.5778   14.9652    4.7353 H   0  0  0  0  0  0  0  0  0  0  0  0
   16.6178   15.5946    3.0091 H   0  0  0  0  0  0  0  0  0  0  0  0
   14.0221   11.6959    2.1929 H   0  0  0  0  0  0  0  0  0  0  0  0
   11.5839   12.0011    2.6221 H   0  0  0  0  0  0  0  0  0  0  0  0
   10.7934   13.8896    4.0498 H   0  0  0  0  0  0  0  0  0  0  0  0
   12.4437   15.4601    5.0633 H   0  0  0  0  0  0  0  0  0  0  0  0
   14.8820   15.1537    4.6391 H   0  0  0  0  0  0  0  0  0  0  0  0
  2  1  2  0
  3  2  1  0
  4  3  2  0
  5  3  1  0
  6  5  1  0
  7  6  2  0
  7  1  1  0
  8  1  1  0
  9  6  1  0
 10  9  1  0
 11 10  1  0
 12 11  1  0
 13 12  1  0
 14 13  2  0
 15 14  1  0
 16 15  2  0
 17 16  1  0
 18 17  2  0
 18 13  1  0
  2 19  1  0
  5 20  1  0
  8 21  1  0
  8 22  1  0
 10 23  1  0
 10 24  1  0
 11 25  1  0
 11 26  1  0
 14 27  1  0
 15 28  1  0
 16 29  1  0
 17 30  1  0
 18 31  1  0
M  END
$$$$
=
     RDKit          3D

 46 47  0  0  0  0  0  0  0  0999 V2000
   16.4260   15.8500    5.5280 N   0  0  0  0  0  4  0  0  0  0  0  0
   16.4430   15.4020    4.1230 C   0  0  0  0  0  0  0  0  0  0  0  0
   16.6920   12.4790    2.6970 C   0  0  0  0  0  0  0  0  0  0  0  0
   15.4730   13.1650    3.2030 C   0  0  0  0  0  0  0  0  0  0  0  0
   14.2830   12.5810    3.0650 N   0  0  0  0  0  0  0  0  0  0  0  0
   13.4140   13.4120    3.6610 N   0  0  0  0  0  0  0  0  0  0  0  0
   14.0130   14.5550    4.1200 C   0  0  0  0  0  0  0  0  0  0  0  0
   15.3620   14.4330    3.8380 C   0  0  0  0  0  0  0  0  0  0  0  0
   12.0030   13.0430    3.7450 C   0  0  0  0  0  0  0  0  0  0  0  0
   11.1300   14.2470    4.0930 C   0  0  0  0  0  0  0  0  0  0  0  0
   11.5290   12.3600    2.4630 C   0  0  0  0  0  0  0  0  0  0  0  0
   17.3090   17.0080    5.8790 C   0  0  0  0  0  0  0  0  0  0  0  0
   18.7340   16.5710    5.7710 C   0  0  0  0  0  0  0  0  0  0  0  0
   19.3240   15.3550    6.1700 C   0  0  0  0  0  0  0  0  0  0  0  0
   20.6510   15.4890    5.8450 C   0  0  0  0  0  0  0  0  0  0  0  0
   20.7980   16.7290    5.2880 N   0  0  0  0  0  0  0  0  0  0  0  0
   19.6280   17.4150    5.2240 N   0  0  0  0  0  0  0  0  0  0  0  0
   22.0300   17.3370    4.7890 C   0  0  0  0  0  0  0  0  0  0  0  0
   21.7470   18.3430    3.6750 C   0  0  0  0  0  0  0  0  0  0  0  0
   22.8400   17.9670    5.9200 C   0  0  0  0  0  0  0  0  0  0  0  0
   15.4579   16.1154    5.7586 H   0  0  0  0  0  0  0  0  0  0  0  0
   16.7965   15.0553    6.0685 H   0  0  0  0  0  0  0  0  0  0  0  0
   16.3167   16.2776    3.4693 H   0  0  0  0  0  0  0  0  0  0  0  0
   17.4053   14.9026    3.9369 H   0  0  0  0  0  0  0  0  0  0  0  0
   17.2999   12.1369    3.5475 H   0  0  0  0  0  0  0  0  0  0  0  0
   16.3983   11.6137    2.0846 H   0  0  0  0  0  0  0  0  0  0  0  0
   17.2792   13.1791    2.0846 H   0  0  0  0  0  0  0  0  0  0  0  0
   13.5186   15.4035    4.6156 H   0  0  0  0  0  0  0  0  0  0  0  0
   11.9000   12.3158    4.5638 H   0  0  0  0  0  0  0  0  0  0  0  0
   11.0591   14.3447    5.1864 H   0  0  0  0  0  0  0  0  0  0  0  0
   11.5782   15.1589    3.6716 H   0  0  0  0  0  0  0  0  0  0  0  0
   10.1239   14.1045    3.6716 H   0  0  0  0  0  0  0  0  0  0  0  0
   10.9191   11.4812    2.7196 H   0  0  0  0  0  0  0  0  0  0  0  0
   10.9254   13.0656    1.8732 H   0  0  0  0  0  0  0  0  0  0  0  0
   12.4012   12.0415    1.8732 H   0  0  0  0  0  0  0  0  0  0  0  0
   17.1228   17.8400    5.1839 H   0  0  0  0  0  0  0  0  0  0  0  0
   17.0962   17.3456    6.9040 H   0  0  0  0  0  0  0  0  0  0  0  0
   18.8307   14.4904    6.6380 H   0  0  0  0  0  0  0  0  0  0  0  0
   21.4435   14.7425    6.0024 H   0  0  0  0  0  0  0  0  0  0  0  0
   22.6416   16.5319    4.3556 H   0  0  0  0  0  0  0  0  0  0  0  0
   21.4742   19.3126    4.1171 H   0  0  0  0  0  0  0  0  0  0  0  0
   22.6461   18.4637    3.0528 H   0  0  0  0  0  0  0  0  0  0  0  0
   20.9169   17.9772    3.0528 H   0  0  0  0  0  0  0  0  0  0  0  0
   22.4282   17.6467    6.8884 H   0  0  0  0  0  0  0  0  0  0  0  0
   23.8890   17.6451    5.8431 H   0  0  0  0  0  0  0  0  0  0  0  0
   22.7862   19.0630    5.8431 H   0  0  0  0  0  0  0  0  0  0  0  0
  2  1  1  0
  4  3  1  0
  5  4  2  0
  6  5  1  0
  7  6  1  0
  8  7  2  0
  8  4  1  0
  8  2  1  0
  9  6  1  0
 10  9  1  0
 11  9  1  0
 12  1  1  0
 13 12  1  0
 14 13  1  0
 15 14  2  0
 16 15  1  0
 17 16  1  0
 17 13  2  0
 18 16  1  0
 19 18  1  0
 20 18  1  0
  1 21  1  0
  1 22  1  0
  2 23  1  0
  2 24  1  0
  3 25  1  0
  3 26  1  0
  3 27  1  0
  7 28  1  0
  9 29  1  0
 10 30  1  0
 10 31  1  0
 10 32  1  0
 11 33  1  0
 11 34  1  0
 11 35  1  0
 12 36  1  0
 12 37  1  0
 14 38  1  0
 15 39  1  0
 18 40  1  0
 19 41  1  0
 19 42  1  0
 19 43  1  0
 20 44  1  0
 20 45  1  0
 20 46  1  0
M  CHG  1   1   1
M  END
$$$$
=
     RDKit          3D

 27 27  0  0  0  0  0  0  0  0999 V2000
   19.0360   15.9650    3.4250 C   0  0  1  0  0  0  0  0  0  0  0  0
   17.5700   15.6150    3.6790 C   0  0  0  0  0  0  0  0  0  0  0  0
   17.1400   15.7840    5.1460 C   0  0  0  0  0  0  0  0  0  0  0  0
   17.4540   17.2060    5.6360 C   0  0  0  0  0  0  0  0  0  0  0  0
   18.9390   17.5280    5.4930 C   0  0  1  0  0  0  0  0  0  0  0  0
   19.4510   17.3060    4.0630 C   0  0  0  0  0  0  0  0  0  0  0  0
   19.9070   14.8410    3.8780 N   0  0  0  0  0  4  0  0  0  0  0  0
   19.1620   18.9460    5.9020 N   0  0  0  0  0  4  0  0  0  0  0  0
   15.6500   15.4770    5.3090 C   0  0  0  0  0  0  0  0  0  0  0  0
   15.3650   15.2630    6.6050 F   0  0  0  0  0  0  0  0  0  0  0  0
   14.9200   16.5160    4.8670 F   0  0  0  0  0  0  0  0  0  0  0  0
   15.3230   14.3830    4.5990 F   0  0  0  0  0  0  0  0  0  0  0  0
   19.1664   16.1029    2.3415 H   0  0  0  0  0  0  0  0  0  0  0  0
   16.9434   16.2699    3.0557 H   0  0  0  0  0  0  0  0  0  0  0  0
   17.4448   14.5515    3.4275 H   0  0  0  0  0  0  0  0  0  0  0  0
   17.7089   15.0699    5.7595 H   0  0  0  0  0  0  0  0  0  0  0  0
   16.8726   17.9261    5.0415 H   0  0  0  0  0  0  0  0  0  0  0  0
   17.1858   17.2729    6.7007 H   0  0  0  0  0  0  0  0  0  0  0  0
   19.5036   16.8431    6.1427 H   0  0  0  0  0  0  0  0  0  0  0  0
   20.5500   17.3491    4.0831 H   0  0  0  0  0  0  0  0  0  0  0  0
   18.9952   18.0948    3.4465 H   0  0  0  0  0  0  0  0  0  0  0  0
   19.9268   14.8154    4.9075 H   0  0  0  0  0  0  0  0  0  0  0  0
   19.5329   13.9508    3.5196 H   0  0  0  0  0  0  0  0  0  0  0  0
   20.8624   14.9810    3.5196 H   0  0  0  0  0  0  0  0  0  0  0  0
   19.1720   19.0093    6.9300 H   0  0  0  0  0  0  0  0  0  0  0  0
   20.0647   19.2730    5.5291 H   0  0  0  0  0  0  0  0  0  0  0  0
   18.4032   19.5343    5.5291 H   0  0  0  0  0  0  0  0  0  0  0  0
  2  1  1  0
  3  2  1  0
  4  3  1  0
  5  4  1  0
  6  1  1  0
  6  5  1  0
  7  1  1  0
  8  5  1  0
  9  3  1  0
 10  9  1  0
 11  9  1  0
 12  9  1  0
  1 13  1  6
  2 14  1  0
  2 15  1  0
  3 16  1  0
  4 17  1  0
  4 18  1  0
  5 19  1  1
  6 20  1  0
  6 21  1  0
  7 22  1  0
  7 23  1  0
  7 24  1  0
  8 25  1  0
  8 26  1  0
  8 27  1  0
M  CHG  2   7   1   8   1
M  END
$$$$
=
     RDKit          3D

 68 73  0  0  0  0  0  0  0  0999 V2000
   24.6730   26.2150   13.2180 N   0  0  0  0  0  0  0  0  0  0  0  0
   23.4220   25.6580   13.4830 C   0  0  0  0  0  0  0  0  0  0  0  0
   23.1600   25.8740   14.8220 C   0  0  0  0  0  0  0  0  0  0  0  0
   24.2620   26.5960   15.3700 C   0  0  0  0  0  0  0  0  0  0  0  0
   25.2090   26.8230   14.3530 C   0  0  0  0  0  0  0  0  0  0  0  0
   26.4230   27.5690   14.6350 C   0  0  0  0  0  0  0  0  0  0  0  0
   27.4530   27.8690   13.7070 C   0  0  0  0  0  0  0  0  0  0  0  0
   28.5870   28.6040   14.0720 C   0  0  0  0  0  0  0  0  0  0  0  0
   28.7330   29.0600   15.3730 C   0  0  0  0  0  0  0  0  0  0  0  0
   27.7460   28.7780   16.3110 C   0  0  0  0  0  0  0  0  0  0  0  0
   26.6020   28.0440   15.9670 C   0  0  0  0  0  0  0  0  0  0  0  0
   25.6560   27.7910   16.9550 C   0  0  0  0  0  0  0  0  0  0  0  0
   24.5000   27.0760   16.6720 C   0  0  0  0  0  0  0  0  0  0  0  0
   22.5630   25.0530   12.4580 C   0  0  0  0  0  0  0  0  0  0  0  0
   22.5070   23.6600   12.3250 C   0  0  0  0  0  0  0  0  0  0  0  0
   21.6530   23.0740   11.3900 C   0  0  0  0  0  0  0  0  0  0  0  0
   20.8570   23.8780   10.5740 C   0  0  0  0  0  0  0  0  0  0  0  0
   20.9280   25.2670   10.6790 C   0  0  0  0  0  0  0  0  0  0  0  0
   21.7830   25.8540   11.6140 C   0  0  0  0  0  0  0  0  0  0  0  0
   21.9280   25.4670   15.4810 C   0  0  0  0  0  0  0  0  0  0  0  0
   20.8600   26.3670   15.5850 C   0  0  0  0  0  0  0  0  0  0  0  0
   19.6760   25.9820   16.2170 C   0  0  0  0  0  0  0  0  0  0  0  0
   19.5540   24.6990   16.7500 C   0  0  0  0  0  0  0  0  0  0  0  0
   20.6150   23.8000   16.6530 C   0  0  0  0  0  0  0  0  0  0  0  0
   21.8000   24.1820   16.0220 C   0  0  0  0  0  0  0  0  0  0  0  0
   25.2270   26.2140   11.8680 C   0  0  0  0  0  0  0  0  0  0  0  0
   26.0030   24.9200   11.5970 C   0  0  1  0  0  0  0  0  0  0  0  0
   25.5960   24.2840   10.3740 O   0  0  0  0  0  0  0  0  0  0  0  0
   27.5060   25.2080   11.4730 C   0  0  0  0  0  0  0  0  0  0  0  0
   28.2300   24.2100   12.3320 N   0  0  0  0  0  4  0  0  0  0  0  0
   27.6950   24.0250   13.7070 C   0  0  0  0  0  0  0  0  0  0  0  0
   28.5780   24.6540   14.7480 C   0  0  0  0  0  0  0  0  0  0  0  0
   29.8400   25.1630   14.4020 C   0  0  0  0  0  0  0  0  0  0  0  0
   30.6360   25.7900   15.3610 C   0  0  0  0  0  0  0  0  0  0  0  0
   30.1830   25.9160   16.6720 C   0  0  0  0  0  0  0  0  0  0  0  0
   28.9340   25.4120   17.0280 C   0  0  0  0  0  0  0  0  0  0  0  0
   28.1340   24.7830   16.0740 C   0  0  0  0  0  0  0  0  0  0  0  0
   27.3578   27.5137   12.6703 H   0  0  0  0  0  0  0  0  0  0  0  0
   29.3644   28.8204   13.3245 H   0  0  0  0  0  0  0  0  0  0  0  0
   29.6222   29.6401   15.6609 H   0  0  0  0  0  0  0  0  0  0  0  0
   27.8651   29.1380   17.3436 H   0  0  0  0  0  0  0  0  0  0  0  0
   25.8264   28.1631   17.9760 H   0  0  0  0  0  0  0  0  0  0  0  0
   23.7665   26.8836   17.4689 H   0  0  0  0  0  0  0  0  0  0  0  0
   23.1400   23.0241   12.9614 H   0  0  0  0  0  0  0  0  0  0  0  0
   21.6075   21.9789   11.2964 H   0  0  0  0  0  0  0  0  0  0  0  0
   20.1727   23.4161    9.8471 H   0  0  0  0  0  0  0  0  0  0  0  0
   20.3103   25.9002   10.0251 H   0  0  0  0  0  0  0  0  0  0  0  0
   21.8443   26.9498   11.6881 H   0  0  0  0  0  0  0  0  0  0  0  0
   20.9542   27.3803   15.1675 H   0  0  0  0  0  0  0  0  0  0  0  0
   18.8387   26.6912   16.2946 H   0  0  0  0  0  0  0  0  0  0  0  0
   18.6205   24.3964   17.2470 H   0  0  0  0  0  0  0  0  0  0  0  0
   20.5182   22.7885   17.0742 H   0  0  0  0  0  0  0  0  0  0  0  0
   22.6362   23.4710   15.9495 H   0  0  0  0  0  0  0  0  0  0  0  0
   24.4057   26.3004   11.1414 H   0  0  0  0  0  0  0  0  0  0  0  0
   25.9170   27.0651   11.7703 H   0  0  0  0  0  0  0  0  0  0  0  0
   25.7894   24.2561   12.4476 H   0  0  0  0  0  0  0  0  0  0  0  0
   25.0745   23.4690   10.5836 H   0  0  0  0  0  0  0  0  0  0  0  0
   27.8235   25.1018   10.4252 H   0  0  0  0  0  0  0  0  0  0  0  0
   27.7317   26.2344   11.7979 H   0  0  0  0  0  0  0  0  0  0  0  0
   28.1941   23.2981   11.8544 H   0  0  0  0  0  0  0  0  0  0  0  0
   29.1817   24.5852   12.4521 H   0  0  0  0  0  0  0  0  0  0  0  0
   26.6972   24.4845   13.7639 H   0  0  0  0  0  0  0  0  0  0  0  0
   27.6498   22.9448   13.9098 H   0  0  0  0  0  0  0  0  0  0  0  0
   30.2034   25.0668   13.3682 H   0  0  0  0  0  0  0  0  0  0  0  0
   31.6235   26.1857   15.0811 H   0  0  0  0  0  0  0  0  0  0  0  0
   30.8111   26.4132   17.4259 H   0  0  0  0  0  0  0  0  0  0  0  0
   28.5777   25.5103   18.0641 H   0  0  0  0  0  0  0  0  0  0  0  0
   27.1495   24.3857   16.3621 H   0  0  0  0  0  0  0  0  0  0  0  0
  2  1  1  0
  3  2  2  0
  4  3  1  0
  5  4  2  0
  5  1  1  0
  6  5  1  0
  7  6  2  0
  8  7  1  0
  9  8  2  0
 10  9  1  0
 11  6  1  0
 11 10  2  0
 12 11  1  0
 13  4  1  0
 13 12  2  0
 14  2  1  0
 15 14  2  0
 16 15  1  0
 17 16  2  0
 18 17  1  0
 19 18  2  0
 19 14  1  0
 20  3  1  0
 21 20  2  0
 22 21  1  0
 23 22  2  0
 24 23  1  0
 25 24  2  0
 25 20  1  0
 26  1  1  0
 27 26  1  0
 28 27  1  0
 29 27  1  0
 30 29  1  0
 31 30  1  0
 32 31  1  0
 33 32  2  0
 34 33  1  0
 35 34  2  0
 36 35  1  0
 37 32  1  0
 37 36  2  0
  7 38  1  0
  8 39  1  0
  9 40  1  0
 10 41  1  0
 12 42  1  0
 13 43  1  0
 15 44  1  0
 16 45  1  0
 17 46  1  0
 18 47  1  0
 19 48  1  0
 21 49  1  0
 22 50  1  0
 23 51  1  0
 24 52  1  0
 25 53  1  0
 26 54  1  0
 26 55  1  0
 27 56  1  1
 28 57  1  0
 29 58  1  0
 29 59  1  0
 30 60  1  0
 30 61  1  0
 31 62  1  0
 31 63  1  0
 33 64  1  0
 34 65  1  0
 35 66  1  0
 36 67  1  0
 37 68  1  0
M  CHG  1  30   1
M  END
$$$$
=
     RDKit          3D

 30 31  0  0  0  0  0  0  0  0999 V2000
   19.4760   15.5260    6.0450 C   0  0  0  0  0  0  0  0  0  0  0  0
   19.9340   14.6650    6.7970 O   0  0  0  0  0  0  0  0  0  0  0  0
   20.3150   16.5420    5.6040 N   0  0  0  0  0  0  0  0  0  0  0  0
   19.9410   17.8070    4.9880 C   0  0  0  0  0  0  0  0  0  0  0  0
   21.1130   18.7340    5.3010 C   0  0  0  0  0  0  0  0  0  0  0  0
   22.2980   17.7730    5.3240 C   0  0  2  0  0  0  0  0  0  0  0  0
   21.7150   16.5220    5.9750 C   0  0  0  0  0  0  0  0  0  0  0  0
   18.4240   14.2030    3.5110 C   0  0  0  0  0  0  0  0  0  0  0  0
   17.6200   14.9380    4.4670 N   0  0  0  0  0  0  0  0  0  0  0  0
   16.2670   15.1210    4.3490 C   0  0  0  0  0  0  0  0  0  0  0  0
   15.8450   15.8930    5.4030 C   0  0  0  0  0  0  0  0  0  0  0  0
   16.9850   16.1720    6.1920 C   0  0  0  0  0  0  0  0  0  0  0  0
   18.0860   15.5380    5.6270 C   0  0  0  0  0  0  0  0  0  0  0  0
   23.4240   18.3430    6.0980 N   0  0  0  0  0  4  0  0  0  0  0  0
   19.8148   17.6901    3.9015 H   0  0  0  0  0  0  0  0  0  0  0  0
   18.9835   18.1942    5.3664 H   0  0  0  0  0  0  0  0  0  0  0  0
   21.2357   19.4976    4.5187 H   0  0  0  0  0  0  0  0  0  0  0  0
   20.9878   19.2979    6.2371 H   0  0  0  0  0  0  0  0  0  0  0  0
   22.7214   17.5656    4.3302 H   0  0  0  0  0  0  0  0  0  0  0  0
   21.8286   16.5632    7.0683 H   0  0  0  0  0  0  0  0  0  0  0  0
   22.2227   15.6031    5.6467 H   0  0  0  0  0  0  0  0  0  0  0  0
   19.1323   13.5555    4.0486 H   0  0  0  0  0  0  0  0  0  0  0  0
   17.7690   13.5849    2.8794 H   0  0  0  0  0  0  0  0  0  0  0  0
   18.9810   14.9107    2.8794 H   0  0  0  0  0  0  0  0  0  0  0  0
   15.6292   14.7188    3.5481 H   0  0  0  0  0  0  0  0  0  0  0  0
   14.8161   16.2303    5.5968 H   0  0  0  0  0  0  0  0  0  0  0  0
   16.9985   16.7889    7.1026 H   0  0  0  0  0  0  0  0  0  0  0  0
   23.2322   18.2459    7.1053 H   0  0  0  0  0  0  0  0  0  0  0  0
   24.2914   17.8395    5.8636 H   0  0  0  0  0  0  0  0  0  0  0  0
   23.5318   19.3402    5.8636 H   0  0  0  0  0  0  0  0  0  0  0  0
  2  1  2  0
  3  1  1  0
  4  3  1  0
  5  4  1  0
  6  5  1  0
  7  3  1  0
  7  6  1  0
  9  8  1  0
 10  9  1  0
 11 10  2  0
 12 11  1  0
 13  9  1  0
 13 12  2  0
 13  1  1  0
 14  6  1  0
  4 15  1  0
  4 16  1  0
  5 17  1  0
  5 18  1  0
  6 19  1  6
  7 20  1  0
  7 21  1  0
  8 22  1  0
  8 23  1  0
  8 24  1  0
 10 25  1  0
 11 26  1  0
 12 27  1  0
 14 28  1  0
 14 29  1  0
 14 30  1  0
M  CHG  1  14   1
M  END
$$$$
=
     RDKit          3D

 52 53  0  0  0  0  0  0  0  0999 V2000
   17.6590   14.9510    4.4870 C   0  0  2  0  0  0  0  0  0  0  0  0
   17.8960   13.9970    3.3510 C   0  0  0  0  0  0  0  0  0  0  0  0
   16.5620   13.3120    3.2370 C   0  0  0  0  0  0  0  0  0  0  0  0
   16.4640   12.2220    2.6990 O   0  0  0  0  0  0  0  0  0  0  0  0
   15.5880   14.1180    3.7920 N   0  0  0  0  0  0  0  0  0  0  0  0
   16.1720   15.1960    4.4110 C   0  0  0  0  0  0  0  0  0  0  0  0
   15.7030   16.2520    4.8190 O   0  0  0  0  0  0  0  0  0  0  0  0
   14.1780   13.8940    3.6990 C   0  0  0  0  0  0  0  0  0  0  0  0
   13.2540   14.7140    4.3660 C   0  0  0  0  0  0  0  0  0  0  0  0
   11.8710   14.4920    4.2740 C   0  0  0  0  0  0  0  0  0  0  0  0
   11.3690   13.4390    3.5080 C   0  0  0  0  0  0  0  0  0  0  0  0
   12.2700   12.6140    2.8340 C   0  0  0  0  0  0  0  0  0  0  0  0
   13.6530   12.8410    2.9300 C   0  0  0  0  0  0  0  0  0  0  0  0
    9.8940   13.2490    3.4450 C   0  0  0  0  0  0  0  0  0  0  0  0
    9.3680   12.2510    2.9820 O   0  0  0  0  0  0  0  0  0  0  0  0
    9.2520   14.3230    3.9670 O   0  0  0  0  0  0  0  0  0  0  0  0
    7.8320   14.1690    4.0390 C   0  0  0  0  0  0  0  0  0  0  0  0
   18.4440   16.2380    4.3500 N   0  0  0  0  0  4  0  0  0  0  0  0
   19.1610   16.4910    3.0670 C   0  0  0  0  0  0  0  0  0  0  0  0
   19.9100   17.8210    3.0510 C   0  0  0  0  0  0  0  0  0  0  0  0
   20.2660   18.3460    4.4450 C   0  0  0  0  0  0  0  0  0  0  0  0
   21.7560   18.2100    4.7840 C   0  0  0  0  0  0  0  0  0  0  0  0
   22.0310   17.2630    5.9550 C   0  0  0  0  0  0  0  0  0  0  0  0
   20.7940   15.1220    6.5950 C   0  0  0  0  0  0  0  0  0  0  0  0
   21.7510   15.7950    5.6230 C   0  0  0  0  0  0  0  0  0  0  0  0
   17.9920   14.5443    5.4533 H   0  0  0  0  0  0  0  0  0  0  0  0
   18.1508   14.5332    2.4249 H   0  0  0  0  0  0  0  0  0  0  0  0
   18.7366   13.3075    3.5180 H   0  0  0  0  0  0  0  0  0  0  0  0
   13.6231   15.5516    4.9761 H   0  0  0  0  0  0  0  0  0  0  0  0
   11.1761   15.1545    4.8109 H   0  0  0  0  0  0  0  0  0  0  0  0
   11.8947   11.7798    2.2230 H   0  0  0  0  0  0  0  0  0  0  0  0
   14.3434   12.1771    2.3890 H   0  0  0  0  0  0  0  0  0  0  0  0
    7.5198   14.1351    5.0932 H   0  0  0  0  0  0  0  0  0  0  0  0
    7.3451   15.0196    3.5396 H   0  0  0  0  0  0  0  0  0  0  0  0
    7.5388   13.2338    3.5396 H   0  0  0  0  0  0  0  0  0  0  0  0
   17.7830   17.0156    4.4893 H   0  0  0  0  0  0  0  0  0  0  0  0
   19.1944   16.1559    5.0507 H   0  0  0  0  0  0  0  0  0  0  0  0
   19.8856   15.6793    2.9051 H   0  0  0  0  0  0  0  0  0  0  0  0
   18.4032   16.5321    2.2707 H   0  0  0  0  0  0  0  0  0  0  0  0
   20.8420   17.6875    2.4821 H   0  0  0  0  0  0  0  0  0  0  0  0
   19.2389   18.5614    2.5912 H   0  0  0  0  0  0  0  0  0  0  0  0
   19.9920   19.4100    4.4975 H   0  0  0  0  0  0  0  0  0  0  0  0
   19.7100   17.7375    5.1734 H   0  0  0  0  0  0  0  0  0  0  0  0
   22.2817   17.8282    3.8964 H   0  0  0  0  0  0  0  0  0  0  0  0
   22.1125   19.2068    5.0829 H   0  0  0  0  0  0  0  0  0  0  0  0
   23.0882   17.3607    6.2426 H   0  0  0  0  0  0  0  0  0  0  0  0
   21.3520   17.5483    6.7721 H   0  0  0  0  0  0  0  0  0  0  0  0
   21.1054   15.3410    7.6270 H   0  0  0  0  0  0  0  0  0  0  0  0
   19.7756   15.5038    6.4305 H   0  0  0  0  0  0  0  0  0  0  0  0
   20.8089   14.0345    6.4305 H   0  0  0  0  0  0  0  0  0  0  0  0
   22.7047   15.2471    5.6386 H   0  0  0  0  0  0  0  0  0  0  0  0
   21.2722   15.7742    4.6329 H   0  0  0  0  0  0  0  0  0  0  0  0
  2  1  1  0
  3  2  1  0
  4  3  2  0
  5  3  1  0
  6  5  1  0
  6  1  1  0
  7  6  2  0
  8  5  1  0
  9  8  2  0
 10  9  1  0
 11 10  2  0
 12 11  1  0
 13 12  2  0
 13  8  1  0
 14 11  1  0
 15 14  2  0
 16 14  1  0
 17 16  1  0
 18  1  1  0
 19 18  1  0
 20 19  1  0
 21 20  1  0
 22 21  1  0
 23 22  1  0
 25 24  1  0
 25 23  1  0
  1 26  1  1
  2 27  1  0
  2 28  1  0
  9 29  1  0
 10 30  1  0
 12 31  1  0
 13 32  1  0
 17 33  1  0
 17 34  1  0
 17 35  1  0
 18 36  1  0
 18 37  1  0
 19 38  1  0
 19 39  1  0
 20 40  1  0
 20 41  1  0
 21 42  1  0
 21 43  1  0
 22 44  1  0
 22 45  1  0
 23 46  1  0
 23 47  1  0
 24 48  1  0
 24 49  1  0
 24 50  1  0
 25 51  1  0
 25 52  1  0
M  CHG  1  18   1
M  END
$$$$
=
     RDKit          3D

 29 30  0  0  0  0  0  0  0  0999 V2000
   13.8550   12.1750    2.7460 N   0  0  0  0  0  0  0  0  0  0  0  0
   15.0610   12.8020    3.0160 C   0  0  0  0  0  0  0  0  0  0  0  0
   16.1730   12.1580    2.6500 N   0  0  0  0  0  0  0  0  0  0  0  0
   17.3550   12.7350    2.9490 C   0  0  0  0  0  0  0  0  0  0  0  0
   17.5140   13.9600    3.6060 C   0  0  0  0  0  0  0  0  0  0  0  0
   16.3320   14.6120    4.0080 C   0  0  0  0  0  0  0  0  0  0  0  0
   15.0980   14.0130    3.6870 C   0  0  0  0  0  0  0  0  0  0  0  0
   16.2730   15.9310    4.7270 C   0  0  0  0  0  0  0  0  0  0  0  0
   18.9210   14.4330    3.8410 C   0  0  2  0  0  0  0  0  0  0  0  0
   19.3120   14.6520    5.3030 C   0  0  0  0  0  0  0  0  0  0  0  0
   20.4700   15.6290    5.2090 C   0  0  0  0  0  0  0  0  0  0  0  0
   20.0330   16.5860    4.1200 C   0  0  0  0  0  0  0  0  0  0  0  0
   19.2860   15.7230    3.1510 N   0  0  0  0  0  4  0  0  0  0  0  0
   12.9684   12.6292    3.0080 H   0  0  0  0  0  0  0  0  0  0  0  0
   13.8452   11.2548    2.2833 H   0  0  0  0  0  0  0  0  0  0  0  0
   18.2684   12.1987    2.6521 H   0  0  0  0  0  0  0  0  0  0  0  0
   14.1586   14.5099    3.9709 H   0  0  0  0  0  0  0  0  0  0  0  0
   16.2808   15.7572    5.8132 H   0  0  0  0  0  0  0  0  0  0  0  0
   17.1448   16.5406    4.4470 H   0  0  0  0  0  0  0  0  0  0  0  0
   15.3503   16.4603    4.4470 H   0  0  0  0  0  0  0  0  0  0  0  0
   19.4681   13.5795    3.4141 H   0  0  0  0  0  0  0  0  0  0  0  0
   18.4770   15.0836    5.8743 H   0  0  0  0  0  0  0  0  0  0  0  0
   19.5752   13.7195    5.8238 H   0  0  0  0  0  0  0  0  0  0  0  0
   20.6173   16.1579    6.1622 H   0  0  0  0  0  0  0  0  0  0  0  0
   21.4298   15.1382    4.9901 H   0  0  0  0  0  0  0  0  0  0  0  0
   19.3787   17.3700    4.5290 H   0  0  0  0  0  0  0  0  0  0  0  0
   20.8809   17.1081    3.6526 H   0  0  0  0  0  0  0  0  0  0  0  0
   19.8803   15.5237    2.3337 H   0  0  0  0  0  0  0  0  0  0  0  0
   18.4338   16.2061    2.8328 H   0  0  0  0  0  0  0  0  0  0  0  0
  2  1  1  0
  3  2  2  0
  4  3  1  0
  5  4  2  0
  6  5  1  0
  7  6  2  0
  7  2  1  0
  8  6  1  0
  9  5  1  0
 10  9  1  0
 11 10  1  0
 12 11  1  0
 13  9  1  0
 13 12  1  0
  1 14  1  0
  1 15  1  0
  4 16  1  0
  7 17  1  0
  8 18  1  0
  8 19  1  0
  8 20  1  0
  9 21  1  6
 10 22  1  0
 10 23  1  0
 11 24  1  0
 11 25  1  0
 12 26  1  0
 12 27  1  0
 13 28  1  0
 13 29  1  0
M  CHG  1  13   1
M  END
$$$$
=
     RDKit          3D

 34 35  0  0  0  0  0  0  0  0999 V2000
   19.8410   15.4580    4.2310 C   0  0  2  0  0  0  0  0  0  0  0  0
   18.8560   15.9110    5.3130 C   0  0  0  0  0  0  0  0  0  0  0  0
   17.5060   15.9030    4.7560 N   0  0  0  0  0  0  0  0  0  0  0  0
   17.2250   14.7440    4.0040 C   0  0  0  0  0  0  0  0  0  0  0  0
   18.2640   13.8680    3.5990 C   0  0  0  0  0  0  0  0  0  0  0  0
   19.5940   14.0850    3.8960 O   0  0  0  0  0  0  0  0  0  0  0  0
   18.0050   12.6970    2.8810 C   0  0  0  0  0  0  0  0  0  0  0  0
   16.7030   12.3890    2.5050 C   0  0  0  0  0  0  0  0  0  0  0  0
   15.6680   13.2530    2.8450 C   0  0  0  0  0  0  0  0  0  0  0  0
   15.9280   14.4170    3.5800 C   0  0  0  0  0  0  0  0  0  0  0  0
   16.4500   16.5230    5.5670 C   0  0  0  0  0  0  0  0  0  0  0  0
   16.2540   15.7360    6.8550 C   0  0  0  0  0  0  0  0  0  0  0  0
   21.2980   15.5430    4.7020 C   0  0  0  0  0  0  0  0  0  0  0  0
   22.3780   17.4680    5.9450 C   0  0  0  0  0  0  0  0  0  0  0  0
   21.4820   16.2770    6.0030 N   0  0  0  0  0  4  0  0  0  0  0  0
   19.6922   16.1265    3.3702 H   0  0  0  0  0  0  0  0  0  0  0  0
   18.9062   15.2229    6.1697 H   0  0  0  0  0  0  0  0  0  0  0  0
   19.1140   16.9254    5.6512 H   0  0  0  0  0  0  0  0  0  0  0  0
   18.8302   12.0205    2.6140 H   0  0  0  0  0  0  0  0  0  0  0  0
   16.4926   11.4677    1.9421 H   0  0  0  0  0  0  0  0  0  0  0  0
   14.6384   13.0211    2.5349 H   0  0  0  0  0  0  0  0  0  0  0  0
   15.0954   15.0907    3.8307 H   0  0  0  0  0  0  0  0  0  0  0  0
   16.7375   17.5562    5.8115 H   0  0  0  0  0  0  0  0  0  0  0  0
   15.5094   16.5229    4.9967 H   0  0  0  0  0  0  0  0  0  0  0  0
   16.4189   16.3980    7.7179 H   0  0  0  0  0  0  0  0  0  0  0  0
   15.2292   15.3377    6.8890 H   0  0  0  0  0  0  0  0  0  0  0  0
   16.9723   14.9036    6.8890 H   0  0  0  0  0  0  0  0  0  0  0  0
   21.6812   14.5194    4.8258 H   0  0  0  0  0  0  0  0  0  0  0  0
   21.8458   16.1124    3.9367 H   0  0  0  0  0  0  0  0  0  0  0  0
   22.6225   17.7930    6.9670 H   0  0  0  0  0  0  0  0  0  0  0  0
   23.3039   17.2047    5.4126 H   0  0  0  0  0  0  0  0  0  0  0  0
   21.8684   18.2846    5.4126 H   0  0  0  0  0  0  0  0  0  0  0  0
   20.5553   16.5919    6.3239 H   0  0  0  0  0  0  0  0  0  0  0  0
   21.9374   15.6104    6.6427 H   0  0  0  0  0  0  0  0  0  0  0  0
  2  1  1  0
  3  2  1  0
  4  3  1  0
  5  4  2  0
  6  5  1  0
  6  1  1  0
  7  5  1  0
  8  7  2  0
  9  8  1  0
 10  9  2  0
 10  4  1  0
 11  3  1  0
 12 11  1  0
 13  1  1  0
 15 13  1  0
 15 14  1  0
  1 16  1  6
  2 17  1  0
  2 18  1  0
  7 19  1  0
  8 20  1  0
  9 21  1  0
 10 22  1  0
 11 23  1  0
 11 24  1  0
 12 25  1  0
 12 26  1  0
 12 27  1  0
 13 28  1  0
 13 29  1  0
 14 30  1  0
 14 31  1  0
 14 32  1  0
 15 33  1  0
 15 34  1  0
M  CHG  1  15   1
M  END
$$$$
=
     RDKit          3D

 42 43  0  0  0  0  0  0  0  0999 V2000
   17.1030   16.6100    5.3210 N   0  0  0  0  0  0  0  0  0  0  0  0
   16.4860   15.7920    4.3920 C   0  0  0  0  0  0  0  0  0  0  0  0
   17.0380   15.1450    3.5060 O   0  0  0  0  0  0  0  0  0  0  0  0
   21.2320   17.3130    5.8340 C   0  0  0  0  0  0  0  0  0  0  0  0
   20.3970   18.3750    5.4880 C   0  0  0  0  0  0  0  0  0  0  0  0
   19.0240   18.1630    5.2990 C   0  0  0  0  0  0  0  0  0  0  0  0
   18.4720   16.8940    5.4660 C   0  0  0  0  0  0  0  0  0  0  0  0
   19.3140   15.8300    5.8080 C   0  0  0  0  0  0  0  0  0  0  0  0
   20.6950   16.0180    5.9510 C   0  0  0  0  0  0  0  0  0  0  0  0
   21.4960   14.9500    6.4100 N   0  0  0  0  0  0  0  0  0  0  0  0
   23.2780   18.4140    5.3130 C   0  0  0  0  0  0  0  0  0  0  0  0
   22.5880   17.4090    6.0430 O   0  0  0  0  0  0  0  0  0  0  0  0
   14.9630   15.7460    4.5560 C   0  0  0  0  0  0  0  0  0  0  0  0
   14.5250   14.4350    4.9050 O   0  0  0  0  0  0  0  0  0  0  0  0
   13.3940   13.9640    4.2910 C   0  0  0  0  0  0  0  0  0  0  0  0
   12.1060   14.4650    4.4950 C   0  0  0  0  0  0  0  0  0  0  0  0
   11.0160   13.9130    3.8150 C   0  0  0  0  0  0  0  0  0  0  0  0
   11.1950   12.8470    2.9290 C   0  0  0  0  0  0  0  0  0  0  0  0
   12.4870   12.3550    2.7140 C   0  0  0  0  0  0  0  0  0  0  0  0
   13.5900   12.9010    3.3900 C   0  0  0  0  0  0  0  0  0  0  0  0
   14.9640   12.3430    3.1420 C   0  0  0  0  0  0  0  0  0  0  0  0
   10.0290   12.2780    2.1770 C   0  0  0  0  0  0  0  0  0  0  0  0
   16.4767   17.0721    5.9956 H   0  0  0  0  0  0  0  0  0  0  0  0
   20.8175   19.3837    5.3628 H   0  0  0  0  0  0  0  0  0  0  0  0
   18.3764   19.0060    5.0163 H   0  0  0  0  0  0  0  0  0  0  0  0
   18.8847   14.8298    5.9671 H   0  0  0  0  0  0  0  0  0  0  0  0
   22.5122   15.0781    6.5185 H   0  0  0  0  0  0  0  0  0  0  0  0
   21.0642   14.0427    6.6364 H   0  0  0  0  0  0  0  0  0  0  0  0
   23.7576   19.1126    6.0144 H   0  0  0  0  0  0  0  0  0  0  0  0
   24.0457   17.9454    4.6797 H   0  0  0  0  0  0  0  0  0  0  0  0
   22.5648   18.9621    4.6797 H   0  0  0  0  0  0  0  0  0  0  0  0
   14.6655   16.4475    5.3493 H   0  0  0  0  0  0  0  0  0  0  0  0
   14.4993   16.0266    3.5988 H   0  0  0  0  0  0  0  0  0  0  0  0
   11.9483   15.2989    5.1949 H   0  0  0  0  0  0  0  0  0  0  0  0
   10.0080   14.3217    3.9790 H   0  0  0  0  0  0  0  0  0  0  0  0
   12.6410   11.5283    2.0049 H   0  0  0  0  0  0  0  0  0  0  0  0
   15.4576   12.1426    4.1044 H   0  0  0  0  0  0  0  0  0  0  0  0
   14.8819   11.4070    2.5701 H   0  0  0  0  0  0  0  0  0  0  0  0
   15.5578   13.0712    2.5701 H   0  0  0  0  0  0  0  0  0  0  0  0
    9.2765   11.9108    2.8904 H   0  0  0  0  0  0  0  0  0  0  0  0
    9.5837   13.0601    1.5445 H   0  0  0  0  0  0  0  0  0  0  0  0
   10.3715   11.4457    1.5445 H   0  0  0  0  0  0  0  0  0  0  0  0
  2  1  1  0
  3  2  2  0
  5  4  2  0
  6  5  1  0
  7  6  2  0
  7  1  1  0
  8  7  1  0
  9  8  2  0
  9  4  1  0
 10  9  1  0
 12  4  1  0
 12 11  1  0
 13  2  1  0
 14 13  1  0
 15 14  1  0
 16 15  2  0
 17 16  1  0
 18 17  2  0
 19 18  1  0
 20 19  2  0
 20 15  1  0
 21 20  1  0
 22 18  1  0
  1 23  1  0
  5 24  1  0
  6 25  1  0
  8 26  1  0
 10 27  1  0
 10 28  1  0
 11 29  1  0
 11 30  1  0
 11 31  1  0
 13 32  1  0
 13 33  1  0
 16 34  1  0
 17 35  1  0
 19 36  1  0
 21 37  1  0
 21 38  1  0
 21 39  1  0
 22 40  1  0
 22 41  1  0
 22 42  1  0
M  END
$$$$
=
     RDKit          3D

 51 53  0  0  0  0  0  0  0  0999 V2000
   16.4050   16.5420    4.9270 C   0  0  0  0  0  0  0  0  0  0  0  0
   16.9820   15.3670    4.2010 C   0  0  0  0  0  0  0  0  0  0  0  0
   16.1990   14.2760    3.7190 C   0  0  0  0  0  0  0  0  0  0  0  0
   17.2380   13.2500    2.9550 S   0  0  0  0  0  6  0  0  0  0  0  0
   17.0520   13.1690    1.3640 O   0  0  0  0  0  0  0  0  0  0  0  0
   17.3290   11.7430    3.4760 O   0  0  0  0  0  0  0  0  0  0  0  0
   18.6700   13.9650    3.1930 N   0  0  0  0  0  4  0  0  0  0  0  0
   18.4260   15.1410    3.8800 C   0  0  0  0  0  0  0  0  0  0  0  0
   19.4650   15.9840    4.1980 N   0  0  0  0  0  0  0  0  0  0  0  0
   19.7670   16.1650    5.6380 C   0  0  0  0  0  0  0  0  0  0  0  0
   20.7110   17.3490    5.8850 C   0  0  0  0  0  0  0  0  0  0  0  0
   21.7300   17.4570    4.7610 C   0  0  0  0  0  0  0  0  0  0  0  0
   21.0640   17.6800    3.4010 C   0  0  0  0  0  0  0  0  0  0  0  0
   19.6090   17.1950    3.3730 C   0  0  0  0  0  0  0  0  0  0  0  0
   14.7720   14.0090    3.8550 C   0  0  0  0  0  0  0  0  0  0  0  0
   13.9390   14.9460    4.4790 C   0  0  0  0  0  0  0  0  0  0  0  0
   12.5680   14.7060    4.6060 C   0  0  0  0  0  0  0  0  0  0  0  0
   11.9990   13.5260    4.1090 C   0  0  0  0  0  0  0  0  0  0  0  0
   12.8350   12.5920    3.4810 C   0  0  0  0  0  0  0  0  0  0  0  0
   14.2070   12.8300    3.3530 C   0  0  0  0  0  0  0  0  0  0  0  0
   10.5060   13.2840    4.2640 C   0  0  0  0  0  0  0  0  0  0  0  0
    9.7220   13.8170    3.0610 C   0  0  0  0  0  0  0  0  0  0  0  0
    9.9730   13.8780    5.5700 C   0  0  0  0  0  0  0  0  0  0  0  0
   22.6840   18.5700    5.0430 N   0  0  0  0  0  4  0  0  0  0  0  0
   16.4854   16.3783    6.0118 H   0  0  0  0  0  0  0  0  0  0  0  0
   16.9590   17.4515    4.6514 H   0  0  0  0  0  0  0  0  0  0  0  0
   15.3466   16.6597    4.6514 H   0  0  0  0  0  0  0  0  0  0  0  0
   19.5890   13.6117    2.8904 H   0  0  0  0  0  0  0  0  0  0  0  0
   18.8255   16.3432    6.1783 H   0  0  0  0  0  0  0  0  0  0  0  0
   20.2663   15.2529    5.9968 H   0  0  0  0  0  0  0  0  0  0  0  0
   20.1233   18.2776    5.9321 H   0  0  0  0  0  0  0  0  0  0  0  0
   21.2425   17.1900    6.8349 H   0  0  0  0  0  0  0  0  0  0  0  0
   22.2729   16.5014    4.7151 H   0  0  0  0  0  0  0  0  0  0  0  0
   21.0818   18.7557    3.1716 H   0  0  0  0  0  0  0  0  0  0  0  0
   21.6248   17.0981    2.6547 H   0  0  0  0  0  0  0  0  0  0  0  0
   19.3215   16.9656    2.3363 H   0  0  0  0  0  0  0  0  0  0  0  0
   18.9577   17.9850    3.7751 H   0  0  0  0  0  0  0  0  0  0  0  0
   14.3677   15.8794    4.8728 H   0  0  0  0  0  0  0  0  0  0  0  0
   11.9288   15.4516    5.1015 H   0  0  0  0  0  0  0  0  0  0  0  0
   12.4062   11.6601    3.0839 H   0  0  0  0  0  0  0  0  0  0  0  0
   14.8465   12.0865    2.8549 H   0  0  0  0  0  0  0  0  0  0  0  0
   10.3577   12.1948    4.3055 H   0  0  0  0  0  0  0  0  0  0  0  0
    8.8607   14.4026    3.4149 H   0  0  0  0  0  0  0  0  0  0  0  0
   10.3761   14.4584    2.4521 H   0  0  0  0  0  0  0  0  0  0  0  0
    9.3662   12.9729    2.4521 H   0  0  0  0  0  0  0  0  0  0  0  0
   10.4363   13.3616    6.4236 H   0  0  0  0  0  0  0  0  0  0  0  0
   10.2183   14.9495    5.6125 H   0  0  0  0  0  0  0  0  0  0  0  0
    8.8813   13.7498    5.6125 H   0  0  0  0  0  0  0  0  0  0  0  0
   22.7840   18.6867    6.0615 H   0  0  0  0  0  0  0  0  0  0  0  0
   23.6016   18.3483    4.6311 H   0  0  0  0  0  0  0  0  0  0  0  0
   22.3246   19.4429    4.6311 H   0  0  0  0  0  0  0  0  0  0  0  0
  2  1  1  0
  3  2  2  0
  4  3  1  0
  5  4  2  0
  6  4  2  0
  7  4  1  0
  8  7  2  0
  8  2  1  0
  9  8  1  0
 10  9  1  0
 11 10  1  0
 12 11  1  0
 13 12  1  0
 14  9  1  0
 14 13  1  0
 15  3  1  0
 16 15  2  0
 17 16  1  0
 18 17  2  0
 19 18  1  0
 20 19  2  0
 20 15  1  0
 21 18  1  0
 22 21  1  0
 23 21  1  0
 24 12  1  0
  1 25  1  0
  1 26  1  0
  1 27  1  0
  7 28  1  0
 10 29  1  0
 10 30  1  0
 11 31  1  0
 11 32  1  0
 12 33  1  0
 13 34  1  0
 13 35  1  0
 14 36  1  0
 14 37  1  0
 16 38  1  0
 17 39  1  0
 19 40  1  0
 20 41  1  0
 21 42  1  0
 22 43  1  0
 22 44  1  0
 22 45  1  0
 23 46  1  0
 23 47  1  0
 23 48  1  0
 24 49  1  0
 24 50  1  0
 24 51  1  0
M  CHG  2   7   1  24   1
M  END
$$$$
=
     RDKit          3D

 31 32  0  0  0  0  0  0  0  0999 V2000
   14.4730   12.3810    2.7710 C   0  0  0  0  0  0  0  0  0  0  0  0
   14.9960   13.4850    3.6810 C   0  0  2  0  0  0  0  0  0  0  0  0
   13.8760   14.3970    4.1910 C   0  0  0  0  0  0  0  0  0  0  0  0
   14.2940   15.8580    4.3670 C   0  0  0  0  0  0  0  0  0  0  0  0
   15.7690   16.0300    4.7430 C   0  0  2  0  0  0  0  0  0  0  0  0
   16.7110   15.3500    3.7260 C   0  0  2  0  0  0  0  0  0  0  0  0
   15.9900   14.3040    2.9190 N   0  0  0  0  0  4  0  0  0  0  0  0
   17.9640   14.7290    4.3530 C   0  0  0  0  0  0  0  0  0  0  0  0
   18.5120   15.6280    5.4550 C   0  0  0  0  0  0  0  0  0  0  0  0
   17.5070   15.8260    6.5910 C   0  0  0  0  0  0  0  0  0  0  0  0
   16.0530   15.5760    6.1840 C   0  0  0  0  0  0  0  0  0  0  0  0
   14.0819   11.5554    3.3837 H   0  0  0  0  0  0  0  0  0  0  0  0
   13.6681   12.7797    2.1361 H   0  0  0  0  0  0  0  0  0  0  0  0
   15.2914   12.0107    2.1361 H   0  0  0  0  0  0  0  0  0  0  0  0
   15.4611   13.0112    4.5580 H   0  0  0  0  0  0  0  0  0  0  0  0
   13.0449   14.3594    3.4714 H   0  0  0  0  0  0  0  0  0  0  0  0
   13.5919   14.0254    5.1866 H   0  0  0  0  0  0  0  0  0  0  0  0
   14.1116   16.3888    3.4210 H   0  0  0  0  0  0  0  0  0  0  0  0
   13.6986   16.2674    5.1964 H   0  0  0  0  0  0  0  0  0  0  0  0
   15.9827   17.1082    4.7007 H   0  0  0  0  0  0  0  0  0  0  0  0
   17.0467   16.1657    3.0688 H   0  0  0  0  0  0  0  0  0  0  0  0
   16.6943   13.6644    2.5244 H   0  0  0  0  0  0  0  0  0  0  0  0
   15.4520   14.8147    2.2044 H   0  0  0  0  0  0  0  0  0  0  0  0
   17.7068   13.7485    4.7803 H   0  0  0  0  0  0  0  0  0  0  0  0
   18.7317   14.6139    3.5736 H   0  0  0  0  0  0  0  0  0  0  0  0
   19.4245   15.1703    5.8648 H   0  0  0  0  0  0  0  0  0  0  0  0
   18.7223   16.6135    5.0140 H   0  0  0  0  0  0  0  0  0  0  0  0
   17.7631   15.1316    7.4048 H   0  0  0  0  0  0  0  0  0  0  0  0
   17.5757   16.8802    6.8977 H   0  0  0  0  0  0  0  0  0  0  0  0
   15.3931   16.1309    6.8671 H   0  0  0  0  0  0  0  0  0  0  0  0
   15.8670   14.4933    6.2406 H   0  0  0  0  0  0  0  0  0  0  0  0
  2  1  1  0
  3  2  1  0
  4  3  1  0
  5  4  1  0
  6  5  1  0
  7  2  1  0
  7  6  1  0
  8  6  1  0
  9  8  1  0
 10  9  1  0
 11  5  1  0
 11 10  1  0
  1 12  1  0
  1 13  1  0
  1 14  1  0
  2 15  1  1
  3 16  1  0
  3 17  1  0
  4 18  1  0
  4 19  1  0
  5 20  1  1
  6 21  1  6
  7 22  1  0
  7 23  1  0
  8 24  1  0
  8 25  1  0
  9 26  1  0
  9 27  1  0
 10 28  1  0
 10 29  1  0
 11 30  1  0
 11 31  1  0
M  CHG  1   7   1
M  END
$$$$
=
     RDKit          3D

 34 34  0  0  0  0  0  0  0  0999 V2000
   19.8910   16.1290    3.9850 C   0  0  1  0  0  0  0  0  0  0  0  0
   22.7870   18.0700    5.5540 C   0  0  0  0  0  0  0  0  0  0  0  0
   21.6070   17.6920    4.8070 N   0  0  0  0  0  0  0  0  0  0  0  0
   21.1960   16.3890    4.7300 C   0  0  0  0  0  0  0  0  0  0  0  0
   21.7740   15.4630    5.3010 O   0  0  0  0  0  0  0  0  0  0  0  0
   18.8240   15.5460    4.9340 C   0  0  0  0  0  0  0  0  0  0  0  0
   17.8020   14.6830    4.2220 C   0  0  0  0  0  0  0  0  0  0  0  0
   18.2570   13.5420    3.5300 C   0  0  0  0  0  0  0  0  0  0  0  0
   17.3690   12.7240    2.8350 C   0  0  0  0  0  0  0  0  0  0  0  0
   16.0180   13.0350    2.8310 C   0  0  0  0  0  0  0  0  0  0  0  0
   15.5400   14.1440    3.5190 C   0  0  0  0  0  0  0  0  0  0  0  0
   16.4200   14.9800    4.2260 C   0  0  0  0  0  0  0  0  0  0  0  0
   15.8410   16.1430    4.9880 C   0  0  0  0  0  0  0  0  0  0  0  0
   15.1630   12.2540    2.1600 F   0  0  0  0  0  0  0  0  0  0  0  0
   19.3960   17.4450    3.3530 C   0  0  0  0  0  0  0  0  0  0  0  0
   19.5430   17.4440    1.8710 N   0  0  0  0  0  4  0  0  0  0  0  0
   20.0709   15.3894    3.1909 H   0  0  0  0  0  0  0  0  0  0  0  0
   22.5761   18.0024    6.6315 H   0  0  0  0  0  0  0  0  0  0  0  0
   23.6150   17.3921    5.2992 H   0  0  0  0  0  0  0  0  0  0  0  0
   23.0670   19.1028    5.2992 H   0  0  0  0  0  0  0  0  0  0  0  0
   21.0638   18.4204    4.3220 H   0  0  0  0  0  0  0  0  0  0  0  0
   19.3297   14.9337    5.6951 H   0  0  0  0  0  0  0  0  0  0  0  0
   18.2833   16.3940    5.3796 H   0  0  0  0  0  0  0  0  0  0  0  0
   19.3287   13.2941    3.5390 H   0  0  0  0  0  0  0  0  0  0  0  0
   17.7365   11.8393    2.2943 H   0  0  0  0  0  0  0  0  0  0  0  0
   14.4633   14.3690    3.5098 H   0  0  0  0  0  0  0  0  0  0  0  0
   15.9339   15.9564    6.0681 H   0  0  0  0  0  0  0  0  0  0  0  0
   16.3871   17.0613    4.7262 H   0  0  0  0  0  0  0  0  0  0  0  0
   14.7791   16.2607    4.7262 H   0  0  0  0  0  0  0  0  0  0  0  0
   18.3338   17.5817    3.6041 H   0  0  0  0  0  0  0  0  0  0  0  0
   20.0093   18.2654    3.7540 H   0  0  0  0  0  0  0  0  0  0  0  0
   20.5432   17.4372    1.6252 H   0  0  0  0  0  0  0  0  0  0  0  0
   19.0880   16.6061    1.4814 H   0  0  0  0  0  0  0  0  0  0  0  0
   19.0994   18.2880    1.4814 H   0  0  0  0  0  0  0  0  0  0  0  0
  3  2  1  0
  4  1  1  0
  4  3  1  0
  5  4  2  0
  6  1  1  0
  7  6  1  0
  8  7  2  0
  9  8  1  0
 10  9  2  0
 11 10  1  0
 12 11  2  0
 12  7  1  0
 13 12  1  0
 14 10  1  0
 15  1  1  0
 16 15  1  0
  1 17  1  6
  2 18  1  0
  2 19  1  0
  2 20  1  0
  3 21  1  0
  6 22  1  0
  6 23  1  0
  8 24  1  0
  9 25  1  0
 11 26  1  0
 13 27  1  0
 13 28  1  0
 13 29  1  0
 15 30  1  0
 15 31  1  0
 16 32  1  0
 16 33  1  0
 16 34  1  0
M  CHG  1  16   1
M  END
$$$$
=
     RDKit          3D

 42 43  0  0  0  0  0  0  0  0999 V2000
   19.0560   16.8190    5.2470 N   0  0  0  0  0  0  0  0  0  0  0  0
   18.6750   15.5270    4.9150 C   0  0  0  0  0  0  0  0  0  0  0  0
   19.3930   14.6930    4.3690 O   0  0  0  0  0  0  0  0  0  0  0  0
   20.4610   18.0670    3.7470 C   0  0  0  0  0  0  0  0  0  0  0  0
   21.6670   18.6960    3.4380 C   0  0  0  0  0  0  0  0  0  0  0  0
   22.6970   18.7360    4.3830 C   0  0  0  0  0  0  0  0  0  0  0  0
   22.5260   18.1850    5.6530 C   0  0  0  0  0  0  0  0  0  0  0  0
   21.3390   17.5020    5.9380 C   0  0  0  0  0  0  0  0  0  0  0  0
   20.2950   17.4600    5.0100 C   0  0  0  0  0  0  0  0  0  0  0  0
   23.6060   18.1210    6.5420 N   0  0  0  0  0  0  0  0  0  0  0  0
   19.5950   17.3000    1.6600 C   0  0  0  0  0  0  0  0  0  0  0  0
   19.3800   17.9680    2.8970 O   0  0  0  0  0  0  0  0  0  0  0  0
   17.2150   15.2230    5.3280 C   0  0  1  0  0  0  0  0  0  0  0  0
   16.8330   16.1070    6.5130 C   0  0  0  0  0  0  0  0  0  0  0  0
   16.3440   15.5050    4.2330 O   0  0  0  0  0  0  0  0  0  0  0  0
   15.4570   14.5480    3.8320 C   0  0  0  0  0  0  0  0  0  0  0  0
   15.7620   13.3880    3.1220 C   0  0  0  0  0  0  0  0  0  0  0  0
   14.7480   12.4880    2.7820 C   0  0  0  0  0  0  0  0  0  0  0  0
   13.4280   12.7380    3.1600 C   0  0  0  0  0  0  0  0  0  0  0  0
   13.1120   13.8820    3.8970 C   0  0  0  0  0  0  0  0  0  0  0  0
   14.1350   14.7840    4.2210 C   0  0  0  0  0  0  0  0  0  0  0  0
   11.6940   14.1730    4.2860 C   0  0  0  0  0  0  0  0  0  0  0  0
   18.3438   17.3858    5.7291 H   0  0  0  0  0  0  0  0  0  0  0  0
   21.8079   19.1606    2.4509 H   0  0  0  0  0  0  0  0  0  0  0  0
   23.6553   19.2085    4.1212 H   0  0  0  0  0  0  0  0  0  0  0  0
   21.2258   16.9911    6.9056 H   0  0  0  0  0  0  0  0  0  0  0  0
   23.4780   17.7138    7.4794 H   0  0  0  0  0  0  0  0  0  0  0  0
   24.5284   18.4811    6.2585 H   0  0  0  0  0  0  0  0  0  0  0  0
   19.9268   16.2691    1.8528 H   0  0  0  0  0  0  0  0  0  0  0  0
   18.6573   17.2819    1.0852 H   0  0  0  0  0  0  0  0  0  0  0  0
   20.3672   17.8323    1.0852 H   0  0  0  0  0  0  0  0  0  0  0  0
   17.1245   14.1634    5.6090 H   0  0  0  0  0  0  0  0  0  0  0  0
   17.0605   15.5805    7.4516 H   0  0  0  0  0  0  0  0  0  0  0  0
   17.4061   17.0450    6.4705 H   0  0  0  0  0  0  0  0  0  0  0  0
   15.7572   16.3324    6.4705 H   0  0  0  0  0  0  0  0  0  0  0  0
   16.8018   13.1806    2.8289 H   0  0  0  0  0  0  0  0  0  0  0  0
   14.9916   11.5782    2.2137 H   0  0  0  0  0  0  0  0  0  0  0  0
   12.6336   12.0318    2.8766 H   0  0  0  0  0  0  0  0  0  0  0  0
   13.8934   15.6932    4.7911 H   0  0  0  0  0  0  0  0  0  0  0  0
   11.6108   14.1901    5.3827 H   0  0  0  0  0  0  0  0  0  0  0  0
   11.3958   15.1510    3.8804 H   0  0  0  0  0  0  0  0  0  0  0  0
   11.0347   13.3914    3.8804 H   0  0  0  0  0  0  0  0  0  0  0  0
  2  1  1  0
  3  2  2  0
  5  4  2  0
  6  5  1  0
  7  6  2  0
  8  7  1  0
  9  4  1  0
  9  1  1  0
  9  8  2  0
 10  7  1  0
 12 11  1  0
 12  4  1  0
 13  2  1  0
 14 13  1  0
 15 13  1  0
 16 15  1  0
 17 16  2  0
 18 17  1  0
 19 18  2  0
 20 19  1  0
 21 20  2  0
 21 16  1  0
 22 20  1  0
  1 23  1  0
  5 24  1  0
  6 25  1  0
  8 26  1  0
 10 27  1  0
 10 28  1  0
 11 29  1  0
 11 30  1  0
 11 31  1  0
 13 32  1  1
 14 33  1  0
 14 34  1  0
 14 35  1  0
 17 36  1  0
 18 37  1  0
 19 38  1  0
 21 39  1  0
 22 40  1  0
 22 41  1  0
 22 42  1  0
M  END
$$$$
=
     RDKit          3D

 27 28  0  0  0  0  0  0  0  0999 V2000
   19.0100   14.8900    4.1620 C   0  0  0  0  0  0  0  0  0  0  0  0
   18.8990   13.7000    3.5550 N   0  0  0  0  0  0  0  0  0  0  0  0
   17.5910   13.6420    3.2970 N   0  0  0  0  0  0  0  0  0  0  0  0
   16.9510   14.7510    3.7620 C   0  0  0  0  0  0  0  0  0  0  0  0
   17.8160   15.5600    4.3340 N   0  0  0  0  0  0  0  0  0  0  0  0
   15.4870   14.9160    3.6500 C   0  0  1  0  0  0  0  0  0  0  0  0
   14.7920   13.5530    3.5530 C   0  0  0  0  0  0  0  0  0  0  0  0
   15.4670   12.6880    2.4730 C   0  0  0  0  0  0  0  0  0  0  0  0
   16.9550   12.4510    2.7720 C   0  0  0  0  0  0  0  0  0  0  0  0
   14.9840   15.6660    4.8260 N   0  0  0  0  0  4  0  0  0  0  0  0
   20.5650   15.1020    6.1020 C   0  0  0  0  0  0  0  0  0  0  0  0
   20.3090   15.4320    4.6410 C   0  0  0  0  0  0  0  0  0  0  0  0
   15.2613   15.4795    2.7327 H   0  0  0  0  0  0  0  0  0  0  0  0
   14.8599   13.0405    4.5240 H   0  0  0  0  0  0  0  0  0  0  0  0
   13.7369   13.7064    3.2825 H   0  0  0  0  0  0  0  0  0  0  0  0
   14.9551   11.7155    2.4257 H   0  0  0  0  0  0  0  0  0  0  0  0
   15.3942   13.2232    1.5147 H   0  0  0  0  0  0  0  0  0  0  0  0
   17.0457   11.6424    3.5122 H   0  0  0  0  0  0  0  0  0  0  0  0
   17.4557   12.1808    1.8306 H   0  0  0  0  0  0  0  0  0  0  0  0
   15.2965   15.2000    5.6898 H   0  0  0  0  0  0  0  0  0  0  0  0
   15.3515   16.6279    4.8026 H   0  0  0  0  0  0  0  0  0  0  0  0
   13.9546   15.6911    4.8026 H   0  0  0  0  0  0  0  0  0  0  0  0
   20.0156   15.8102    6.7396 H   0  0  0  0  0  0  0  0  0  0  0  0
   20.2227   14.0779    6.3120 H   0  0  0  0  0  0  0  0  0  0  0  0
   21.6420   15.1789    6.3120 H   0  0  0  0  0  0  0  0  0  0  0  0
   21.1183   15.0010    4.0334 H   0  0  0  0  0  0  0  0  0  0  0  0
   20.2746   16.5271    4.5432 H   0  0  0  0  0  0  0  0  0  0  0  0
  2  1  2  0
  3  2  1  0
  4  3  1  0
  5  4  2  0
  5  1  1  0
  6  4  1  0
  7  6  1  0
  8  7  1  0
  9  8  1  0
  9  3  1  0
 10  6  1  0
 12  1  1  0
 12 11  1  0
  6 13  1  6
  7 14  1  0
  7 15  1  0
  8 16  1  0
  8 17  1  0
  9 18  1  0
  9 19  1  0
 10 20  1  0
 10 21  1  0
 10 22  1  0
 11 23  1  0
 11 24  1  0
 11 25  1  0
 12 26  1  0
 12 27  1  0
M  CHG  1  10   1
M  END
$$$$
=
     RDKit          3D

 38 38  0  0  0  0  0  0  0  0999 V2000
   19.5290   14.4000    5.6370 C   0  0  0  0  0  0  0  0  0  0  0  0
   18.0550   14.8420    5.4640 C   0  0  1  0  0  0  0  0  0  0  0  0
   17.7640   16.2810    5.9220 C   0  0  0  0  0  0  0  0  0  0  0  0
   16.4520   16.8750    5.3870 C   0  0  0  0  0  0  0  0  0  0  0  0
   15.5160   15.8170    4.8390 C   0  0  0  0  0  0  0  0  0  0  0  0
   16.1890   14.9750    3.7480 C   0  0  0  0  0  0  0  0  0  0  0  0
   17.6690   14.7440    4.0040 N   0  0  0  0  0  4  0  0  0  0  0  0
   14.3920   16.3860    4.3530 F   0  0  0  0  0  0  0  0  0  0  0  0
   15.1450   14.9940    5.8530 F   0  0  0  0  0  0  0  0  0  0  0  0
   21.4730   15.8460    7.0720 O   0  0  0  0  0  0  0  0  0  0  0  0
   21.3570   16.0270    5.8710 C   0  0  0  0  0  0  0  0  0  0  0  0
   20.4860   15.3300    5.0860 N   0  0  0  0  0  0  0  0  0  0  0  0
   22.0340   16.9010    5.1040 O   0  0  0  0  0  0  0  0  0  0  0  0
   21.4030   18.1220    4.6320 C   0  0  0  0  0  0  0  0  0  0  0  0
   20.4800   18.7170    5.7010 C   0  0  0  0  0  0  0  0  0  0  0  0
   20.6690   17.8890    3.3070 C   0  0  0  0  0  0  0  0  0  0  0  0
   22.5660   19.0950    4.3870 C   0  0  0  0  0  0  0  0  0  0  0  0
   19.7335   14.2885    6.7121 H   0  0  0  0  0  0  0  0  0  0  0  0
   19.6466   13.4557    5.0852 H   0  0  0  0  0  0  0  0  0  0  0  0
   17.4693   14.1664    6.1047 H   0  0  0  0  0  0  0  0  0  0  0  0
   17.7195   16.2878    7.0211 H   0  0  0  0  0  0  0  0  0  0  0  0
   18.5742   16.9047    5.5163 H   0  0  0  0  0  0  0  0  0  0  0  0
   15.9444   17.4043    6.2069 H   0  0  0  0  0  0  0  0  0  0  0  0
   16.7061   17.5560    4.5614 H   0  0  0  0  0  0  0  0  0  0  0  0
   15.6853   13.9984    3.6984 H   0  0  0  0  0  0  0  0  0  0  0  0
   16.1016   15.5308    2.8028 H   0  0  0  0  0  0  0  0  0  0  0  0
   17.9149   13.8031    3.6648 H   0  0  0  0  0  0  0  0  0  0  0  0
   18.1806   15.4866    3.5063 H   0  0  0  0  0  0  0  0  0  0  0  0
   20.5119   15.4719    4.0662 H   0  0  0  0  0  0  0  0  0  0  0  0
   20.8672   18.4674    6.6999 H   0  0  0  0  0  0  0  0  0  0  0  0
   20.4418   19.8102    5.5852 H   0  0  0  0  0  0  0  0  0  0  0  0
   19.4685   18.3004    5.5852 H   0  0  0  0  0  0  0  0  0  0  0  0
   19.6388   17.5620    3.5111 H   0  0  0  0  0  0  0  0  0  0  0  0
   20.6490   18.8249    2.7294 H   0  0  0  0  0  0  0  0  0  0  0  0
   21.1924   17.1128    2.7294 H   0  0  0  0  0  0  0  0  0  0  0  0
   22.9705   19.4334    5.3523 H   0  0  0  0  0  0  0  0  0  0  0  0
   23.3565   18.5853    3.8166 H   0  0  0  0  0  0  0  0  0  0  0  0
   22.2039   19.9631    3.8166 H   0  0  0  0  0  0  0  0  0  0  0  0
  2  1  1  0
  3  2  1  0
  4  3  1  0
  5  4  1  0
  6  5  1  0
  7  6  1  0
  7  2  1  0
  8  5  1  0
  9  5  1  0
 11 10  2  0
 12 11  1  0
 12  1  1  0
 13 11  1  0
 14 13  1  0
 15 14  1  0
 16 14  1  0
 17 14  1  0
  1 18  1  0
  1 19  1  0
  2 20  1  1
  3 21  1  0
  3 22  1  0
  4 23  1  0
  4 24  1  0
  6 25  1  0
  6 26  1  0
  7 27  1  0
  7 28  1  0
 12 29  1  0
 15 30  1  0
 15 31  1  0
 15 32  1  0
 16 33  1  0
 16 34  1  0
 16 35  1  0
 17 36  1  0
 17 37  1  0
 17 38  1  0
M  CHG  1   7   1
M  END
$$$$
=
     RDKit          3D

 34 34  0  0  0  0  0  0  0  0999 V2000
   17.9820   15.9490    6.0090 C   0  0  0  0  0  0  0  0  0  0  0  0
   18.2330   17.3590    5.5700 N   0  0  0  0  0  4  0  0  0  0  0  0
   19.3400   17.5420    4.5760 C   0  0  0  0  0  0  0  0  0  0  0  0
   19.8730   16.2130    4.0380 C   0  0  0  0  0  0  0  0  0  0  0  0
   19.6420   17.4320    2.0250 C   0  0  0  0  0  0  0  0  0  0  0  0
   19.5660   16.1530    2.6490 O   0  0  0  0  0  0  0  0  0  0  0  0
   16.4890   15.7680    6.2370 C   0  0  0  0  0  0  0  0  0  0  0  0
   15.6910   16.1680    4.9940 C   0  0  0  0  0  0  0  0  0  0  0  0
   15.1540   14.9540    4.2860 C   0  0  0  0  0  0  0  0  0  0  0  0
   15.9650   14.2280    3.4030 C   0  0  0  0  0  0  0  0  0  0  0  0
   15.4740   13.0880    2.7650 C   0  0  0  0  0  0  0  0  0  0  0  0
   14.1700   12.6610    3.0060 C   0  0  0  0  0  0  0  0  0  0  0  0
   13.3560   13.3730    3.8840 C   0  0  0  0  0  0  0  0  0  0  0  0
   13.8440   14.5140    4.5230 C   0  0  0  0  0  0  0  0  0  0  0  0
   18.3247   15.2521    5.2299 H   0  0  0  0  0  0  0  0  0  0  0  0
   18.5311   15.7427    6.9395 H   0  0  0  0  0  0  0  0  0  0  0  0
   17.3652   17.7182    5.1472 H   0  0  0  0  0  0  0  0  0  0  0  0
   18.5272   17.8686    6.4154 H   0  0  0  0  0  0  0  0  0  0  0  0
   18.9609   18.1371    3.7321 H   0  0  0  0  0  0  0  0  0  0  0  0
   20.1692   18.0498    5.0904 H   0  0  0  0  0  0  0  0  0  0  0  0
   20.9620   16.1599    4.1835 H   0  0  0  0  0  0  0  0  0  0  0  0
   19.4111   15.3689    4.5711 H   0  0  0  0  0  0  0  0  0  0  0  0
   19.6885   18.2144    2.7968 H   0  0  0  0  0  0  0  0  0  0  0  0
   20.5446   17.4811    1.3983 H   0  0  0  0  0  0  0  0  0  0  0  0
   18.7515   17.5877    1.3983 H   0  0  0  0  0  0  0  0  0  0  0  0
   16.2863   14.7123    6.4701 H   0  0  0  0  0  0  0  0  0  0  0  0
   16.1818   16.4136    7.0730 H   0  0  0  0  0  0  0  0  0  0  0  0
   14.8502   16.8093    5.2970 H   0  0  0  0  0  0  0  0  0  0  0  0
   16.3588   16.7083    4.3069 H   0  0  0  0  0  0  0  0  0  0  0  0
   16.9963   14.5593    3.2114 H   0  0  0  0  0  0  0  0  0  0  0  0
   16.1170   12.5263    2.0714 H   0  0  0  0  0  0  0  0  0  0  0  0
   13.7834   11.7622    2.5033 H   0  0  0  0  0  0  0  0  0  0  0  0
   12.3265   13.0354    4.0742 H   0  0  0  0  0  0  0  0  0  0  0  0
   13.1971   15.0712    5.2165 H   0  0  0  0  0  0  0  0  0  0  0  0
  2  1  1  0
  3  2  1  0
  4  3  1  0
  6  4  1  0
  6  5  1  0
  7  1  1  0
  8  7  1  0
  9  8  1  0
 10  9  2  0
 11 10  1  0
 12 11  2  0
 13 12  1  0
 14 13  2  0
 14  9  1  0
  1 15  1  0
  1 16  1  0
  2 17  1  0
  2 18  1  0
  3 19  1  0
  3 20  1  0
  4 21  1  0
  4 22  1  0
  5 23  1  0
  5 24  1  0
  5 25  1  0
  7 26  1  0
  7 27  1  0
  8 28  1  0
  8 29  1  0
 10 30  1  0
 11 31  1  0
 12 32  1  0
 13 33  1  0
 14 34  1  0
M  CHG  1   2   1
M  END
$$$$
=
     RDKit          3D

 42 43  0  0  0  0  0  0  0  0999 V2000
   26.8950   27.4980   16.0650 C   0  0  1  0  0  0  0  0  0  0  0  0
   27.0520   25.9980   15.7720 C   0  0  2  0  0  0  0  0  0  0  0  0
   28.0320   26.6990   16.6860 C   0  0  1  0  0  0  0  0  0  0  0  0
   27.3400   25.4500   14.3930 C   0  0  0  0  0  0  0  0  0  0  0  0
   26.7460   25.9840   13.2350 C   0  0  0  0  0  0  0  0  0  0  0  0
   26.9750   25.4360   11.9630 C   0  0  0  0  0  0  0  0  0  0  0  0
   27.7920   24.3200   11.8190 C   0  0  0  0  0  0  0  0  0  0  0  0
   28.3600   23.7530   12.9560 C   0  0  0  0  0  0  0  0  0  0  0  0
   28.1290   24.3040   14.2210 C   0  0  0  0  0  0  0  0  0  0  0  0
   28.0940   23.6850   10.6490 O   0  0  0  0  0  0  0  0  0  0  0  0
   28.6090   22.3630   10.7420 C   0  0  0  0  0  0  0  0  0  0  0  0
   29.7460   26.9030   16.1300 S   0  0  0  0  0  6  0  0  0  0  0  0
   29.7720   27.1290   14.7010 O   0  0  0  0  0  0  0  0  0  0  0  0
   30.4540   25.7880   16.7260 O   0  0  0  0  0  0  0  0  0  0  0  0
   30.3210   28.3930   16.9150 C   0  0  0  0  0  0  0  0  0  0  0  0
   30.6160   29.5180   15.9460 C   0  0  0  0  0  0  0  0  0  0  0  0
   27.1650   28.5510   15.0190 C   0  0  0  0  0  0  0  0  0  0  0  0
   26.3160   29.6470   15.3040 O   0  0  0  0  0  0  0  0  0  0  0  0
   25.7900   27.9050   17.0160 C   0  0  0  0  0  0  0  0  0  0  0  0
   26.2600   28.6610   18.2030 N   0  0  0  0  0  4  0  0  0  0  0  0
   26.4338   25.0935   15.8704 H   0  0  0  0  0  0  0  0  0  0  0  0
   28.3843   26.5628   17.7191 H   0  0  0  0  0  0  0  0  0  0  0  0
   26.0827   26.8565   13.3290 H   0  0  0  0  0  0  0  0  0  0  0  0
   26.5068   25.8908   11.0776 H   0  0  0  0  0  0  0  0  0  0  0  0
   28.9975   22.8619   12.8590 H   0  0  0  0  0  0  0  0  0  0  0  0
   28.5782   23.8255   15.1038 H   0  0  0  0  0  0  0  0  0  0  0  0
   28.7172   22.0853   11.8009 H   0  0  0  0  0  0  0  0  0  0  0  0
   27.9172   21.6645   10.2485 H   0  0  0  0  0  0  0  0  0  0  0  0
   29.5910   22.3165   10.2485 H   0  0  0  0  0  0  0  0  0  0  0  0
   29.5479   28.7350   17.6188 H   0  0  0  0  0  0  0  0  0  0  0  0
   31.2677   28.1460   17.4178 H   0  0  0  0  0  0  0  0  0  0  0  0
   30.8558   30.4326   16.5081 H   0  0  0  0  0  0  0  0  0  0  0  0
   31.4720   29.2416   15.3129 H   0  0  0  0  0  0  0  0  0  0  0  0
   29.7345   29.6972   15.3129 H   0  0  0  0  0  0  0  0  0  0  0  0
   28.2176   28.8671   15.0646 H   0  0  0  0  0  0  0  0  0  0  0  0
   26.9729   28.1587   14.0094 H   0  0  0  0  0  0  0  0  0  0  0  0
   26.2332   29.7540   16.2847 H   0  0  0  0  0  0  0  0  0  0  0  0
   25.0755   28.5350   16.4659 H   0  0  0  0  0  0  0  0  0  0  0  0
   25.3362   26.9758   17.3911 H   0  0  0  0  0  0  0  0  0  0  0  0
   25.9586   28.1762   19.0603 H   0  0  0  0  0  0  0  0  0  0  0  0
   27.2881   28.7218   18.1864 H   0  0  0  0  0  0  0  0  0  0  0  0
   25.8596   29.6099   18.1864 H   0  0  0  0  0  0  0  0  0  0  0  0
  2  1  1  0
  3  2  1  0
  3  1  1  0
  4  2  1  0
  5  4  2  0
  6  5  1  0
  7  6  2  0
  8  7  1  0
  9  8  2  0
  9  4  1  0
 10  7  1  0
 11 10  1  0
 12  3  1  0
 13 12  2  0
 14 12  2  0
 15 12  1  0
 16 15  1  0
  1 17  1  6
 18 17  1  0
 19  1  1  0
 20 19  1  0
  2 21  1  1
  3 22  1  1
  5 23  1  0
  6 24  1  0
  8 25  1  0
  9 26  1  0
 11 27  1  0
 11 28  1  0
 11 29  1  0
 15 30  1  0
 15 31  1  0
 16 32  1  0
 16 33  1  0
 16 34  1  0
 17 35  1  0
 17 36  1  0
 18 37  1  0
 19 38  1  0
 19 39  1  0
 20 40  1  0
 20 41  1  0
 20 42  1  0
M  CHG  1  20   1
M  END
$$$$
=
     RDKit          3D

 54 58  0  0  0  0  0  0  0  0999 V2000
   15.6180   13.9840    3.7970 N   0  0  0  0  0  4  0  0  0  0  0  0
   17.0040   17.8050    6.3100 O   0  0  0  0  0  0  0  0  0  0  0  0
   17.0640   16.8360    5.5700 C   0  0  0  0  0  0  0  0  0  0  0  0
   15.8250   16.0570    5.2190 C   0  0  0  0  0  0  0  0  0  0  0  0
   16.2400   15.3590    3.9550 C   0  0  1  0  0  0  0  0  0  0  0  0
   17.7380   15.2600    4.1110 C   0  0  0  0  0  0  0  0  0  0  0  0
   18.3410   14.3450    3.5630 O   0  0  0  0  0  0  0  0  0  0  0  0
   18.1560   16.2550    4.9590 N   0  0  0  0  0  0  0  0  0  0  0  0
   19.5230   16.5950    5.2080 C   0  0  0  0  0  0  0  0  0  0  0  0
   20.3120   15.8390    6.1140 C   0  0  0  0  0  0  0  0  0  0  0  0
   21.6540   16.1530    6.3760 C   0  0  0  0  0  0  0  0  0  0  0  0
   22.2000   17.2300    5.7220 C   0  0  0  0  0  0  0  0  0  0  0  0
   21.4610   17.9740    4.8420 C   0  0  0  0  0  0  0  0  0  0  0  0
   20.1370   17.6860    4.5650 C   0  0  0  0  0  0  0  0  0  0  0  0
   22.1770   18.9970    4.3020 O   0  0  0  0  0  0  0  0  0  0  0  0
   23.4580   18.8030    4.9400 C   0  0  0  0  0  0  0  0  0  0  0  0
   23.4730   17.6810    5.8490 O   0  0  0  0  0  0  0  0  0  0  0  0
   14.1410   13.9350    3.5000 C   0  0  0  0  0  0  0  0  0  0  0  0
   13.7650   12.5130    3.0950 C   0  0  0  0  0  0  0  0  0  0  0  0
   12.2930   12.4650    2.6710 C   0  0  0  0  0  0  0  0  0  0  0  0
   11.5290   13.5300    3.3410 N   0  0  0  0  0  0  0  0  0  0  0  0
   11.9270   13.8090    4.7240 C   0  0  0  0  0  0  0  0  0  0  0  0
   13.3430   14.3950    4.7190 C   0  0  0  0  0  0  0  0  0  0  0  0
   10.1350   13.3210    3.2170 C   0  0  0  0  0  0  0  0  0  0  0  0
    9.6580   12.2220    2.4940 C   0  0  0  0  0  0  0  0  0  0  0  0
    8.2830   12.0140    2.3590 C   0  0  0  0  0  0  0  0  0  0  0  0
    7.4100   12.9200    2.9560 C   0  0  0  0  0  0  0  0  0  0  0  0
    7.9420   13.9900    3.6500 C   0  0  0  0  0  0  0  0  0  0  0  0
    9.2780   14.2000    3.7860 N   0  0  0  0  0  0  0  0  0  0  0  0
    5.9680   12.7600    2.8530 N   0  0  0  0  0  4  0  0  0  0  0  0
    5.5420   11.9040    2.0670 O   0  0  0  0  0  0  0  0  0  0  0  0
    5.2580   13.4890    3.5590 O   0  0  0  0  0  1  0  0  0  0  0  0
   16.1067   13.5079    3.0254 H   0  0  0  0  0  0  0  0  0  0  0  0
   15.7223   13.5341    4.7177 H   0  0  0  0  0  0  0  0  0  0  0  0
   15.5702   15.3349    6.0087 H   0  0  0  0  0  0  0  0  0  0  0  0
   14.9267   16.6816    5.1053 H   0  0  0  0  0  0  0  0  0  0  0  0
   15.9123   15.9015    3.0559 H   0  0  0  0  0  0  0  0  0  0  0  0
   19.8565   14.9793    6.6272 H   0  0  0  0  0  0  0  0  0  0  0  0
   22.2495   15.5559    7.0823 H   0  0  0  0  0  0  0  0  0  0  0  0
   19.5708   18.3020    3.8509 H   0  0  0  0  0  0  0  0  0  0  0  0
   24.2152   18.6325    4.1606 H   0  0  0  0  0  0  0  0  0  0  0  0
   23.6712   19.7066    5.5300 H   0  0  0  0  0  0  0  0  0  0  0  0
   13.9008   14.6159    2.6701 H   0  0  0  0  0  0  0  0  0  0  0  0
   14.3978   12.1937    2.2538 H   0  0  0  0  0  0  0  0  0  0  0  0
   13.9181   11.8395    3.9511 H   0  0  0  0  0  0  0  0  0  0  0  0
   12.2254   12.6014    1.5816 H   0  0  0  0  0  0  0  0  0  0  0  0
   11.8716   11.4902    2.9578 H   0  0  0  0  0  0  0  0  0  0  0  0
   11.2289   14.5318    5.1715 H   0  0  0  0  0  0  0  0  0  0  0  0
   11.9075   12.8809    5.3141 H   0  0  0  0  0  0  0  0  0  0  0  0
   13.2744   15.4928    4.7065 H   0  0  0  0  0  0  0  0  0  0  0  0
   13.8630   14.0426    5.6220 H   0  0  0  0  0  0  0  0  0  0  0  0
   10.3672   11.5202    2.0309 H   0  0  0  0  0  0  0  0  0  0  0  0
    7.8982   11.1528    1.7931 H   0  0  0  0  0  0  0  0  0  0  0  0
    7.2500   14.7073    4.1154 H   0  0  0  0  0  0  0  0  0  0  0  0
  3  2  2  0
  4  3  1  0
  5  4  1  0
  5  1  1  0
  6  5  1  0
  7  6  2  0
  8  6  1  0
  8  3  1  0
  9  8  1  0
 10  9  2  0
 11 10  1  0
 12 11  2  0
 13 12  1  0
 14 13  2  0
 14  9  1  0
 15 13  1  0
 16 15  1  0
 17 16  1  0
 17 12  1  0
 18  1  1  0
 19 18  1  0
 20 19  1  0
 21 20  1  0
 22 21  1  0
 23 22  1  0
 23 18  1  0
 24 21  1  0
 25 24  2  0
 26 25  1  0
 27 26  2  0
 28 27  1  0
 29 28  2  0
 29 24  1  0
 30 27  1  0
 31 30  2  0
 32 30  1  0
  1 33  1  0
  1 34  1  0
  4 35  1  0
  4 36  1  0
  5 37  1  6
 10 38  1  0
 11 39  1  0
 14 40  1  0
 16 41  1  0
 16 42  1  0
 18 43  1  0
 19 44  1  0
 19 45  1  0
 20 46  1  0
 20 47  1  0
 22 48  1  0
 22 49  1  0
 23 50  1  0
 23 51  1  0
 25 52  1  0
 26 53  1  0
 28 54  1  0
M  CHG  3   1   1  30   1  32  -1
M  END
$$$$
=
     RDKit          3D

 35 36  0  0  0  0  0  0  0  0999 V2000
   16.9780   14.7560    3.9100 C   0  0  0  0  0  0  0  0  0  0  0  0
   15.8780   13.9860    2.8470 S   0  0  0  0  0  0  0  0  0  0  0  0
   14.5730   14.2640    3.9400 C   0  0  0  0  0  0  0  0  0  0  0  0
   14.9340   14.8980    5.0310 N   0  0  0  0  0  0  0  0  0  0  0  0
   16.3060   15.1900    5.0410 C   0  0  0  0  0  0  0  0  0  0  0  0
   13.2710   13.8980    3.7020 N   0  0  0  0  0  0  0  0  0  0  0  0
   13.0030   12.6900    2.8980 C   0  0  0  0  0  0  0  0  0  0  0  0
   11.5270   12.6280    2.4550 C   0  0  0  0  0  0  0  0  0  0  0  0
   10.6080   12.7960    3.6360 N   0  0  0  0  0  4  0  0  0  0  0  0
   10.8770   14.0790    4.3780 C   0  0  0  0  0  0  0  0  0  0  0  0
   12.3440   14.1350    4.8330 C   0  0  0  0  0  0  0  0  0  0  0  0
   16.9180   15.9150    6.2100 C   0  0  0  0  0  0  0  0  0  0  0  0
   18.1910   15.5120    6.4450 F   0  0  0  0  0  0  0  0  0  0  0  0
   16.2260   15.6900    7.3600 F   0  0  0  0  0  0  0  0  0  0  0  0
   16.9300   17.2590    6.0250 F   0  0  0  0  0  0  0  0  0  0  0  0
   18.3880   14.9040    3.6170 C   0  0  0  0  0  0  0  0  0  0  0  0
   19.2030   13.9940    3.6730 O   0  0  0  0  0  0  0  0  0  0  0  0
   18.6950   16.1860    3.2680 O   0  0  0  0  0  0  0  0  0  0  0  0
   19.6800   18.0940    4.3150 C   0  0  0  0  0  0  0  0  0  0  0  0
   19.9190   16.6770    3.8310 C   0  0  0  0  0  0  0  0  0  0  0  0
   13.6449   12.7043    2.0048 H   0  0  0  0  0  0  0  0  0  0  0  0
   13.2172   11.8063    3.5170 H   0  0  0  0  0  0  0  0  0  0  0  0
   11.3337   13.4324    1.7301 H   0  0  0  0  0  0  0  0  0  0  0  0
   11.3369   11.6464    1.9965 H   0  0  0  0  0  0  0  0  0  0  0  0
    9.6338   12.8025    3.3017 H   0  0  0  0  0  0  0  0  0  0  0  0
   10.7729   12.0119    4.2833 H   0  0  0  0  0  0  0  0  0  0  0  0
   10.6700   14.9319    3.7149 H   0  0  0  0  0  0  0  0  0  0  0  0
   10.2259   14.1233    5.2635 H   0  0  0  0  0  0  0  0  0  0  0  0
   12.5482   15.1276    5.2609 H   0  0  0  0  0  0  0  0  0  0  0  0
   12.5040   13.3459    5.5825 H   0  0  0  0  0  0  0  0  0  0  0  0
   19.6773   18.1102    5.4149 H   0  0  0  0  0  0  0  0  0  0  0  0
   20.4803   18.7492    3.9406 H   0  0  0  0  0  0  0  0  0  0  0  0
   18.7090   18.4505    3.9406 H   0  0  0  0  0  0  0  0  0  0  0  0
   20.2226   16.0408    4.6755 H   0  0  0  0  0  0  0  0  0  0  0  0
   20.7187   16.6621    3.0759 H   0  0  0  0  0  0  0  0  0  0  0  0
  2  1  1  0
  3  2  1  0
  4  3  2  0
  5  4  1  0
  5  1  2  0
  6  3  1  0
  7  6  1  0
  8  7  1  0
  9  8  1  0
 10  9  1  0
 11 10  1  0
 11  6  1  0
 12  5  1  0
 13 12  1  0
 14 12  1  0
 15 12  1  0
 16  1  1  0
 17 16  2  0
 18 16  1  0
 20 18  1  0
 20 19  1  0
  7 21  1  0
  7 22  1  0
  8 23  1  0
  8 24  1  0
  9 25  1  0
  9 26  1  0
 10 27  1  0
 10 28  1  0
 11 29  1  0
 11 30  1  0
 19 31  1  0
 19 32  1  0
 19 33  1  0
 20 34  1  0
 20 35  1  0
M  CHG  1   9   1
M  END
$$$$
=
     RDKit          3D

 38 40  0  0  0  0  0  0  0  0999 V2000
   18.8930   15.8540    5.3270 C   0  0  0  0  0  0  0  0  0  0  0  0
   19.3390   14.9070    6.2670 C   0  0  0  0  0  0  0  0  0  0  0  0
   20.6250   14.9610    6.8090 C   0  0  0  0  0  0  0  0  0  0  0  0
   21.5010   15.9720    6.4360 C   0  0  0  0  0  0  0  0  0  0  0  0
   21.0920   16.9260    5.5050 C   0  0  0  0  0  0  0  0  0  0  0  0
   19.7910   16.8770    4.9460 C   0  0  0  0  0  0  0  0  0  0  0  0
   19.4560   17.9910    3.9900 C   0  0  0  0  0  0  0  0  0  0  0  0
   20.5830   18.2030    3.0310 N   0  0  0  0  0  4  0  0  0  0  0  0
   21.9330   18.4230    3.6440 C   0  0  0  0  0  0  0  0  0  0  0  0
   21.9940   18.0760    5.1340 C   0  0  0  0  0  0  0  0  0  0  0  0
   14.7520   15.4300    4.1090 C   0  0  0  0  0  0  0  0  0  0  0  0
   15.0810   15.2000    5.5770 C   0  0  0  0  0  0  0  0  0  0  0  0
   16.4510   15.7730    5.9560 C   0  0  0  0  0  0  0  0  0  0  0  0
   17.4620   15.7820    4.7900 C   0  0  0  0  0  0  0  0  0  0  0  0
   17.1650   14.6250    3.8180 C   0  0  0  0  0  0  0  0  0  0  0  0
   15.7770   14.7690    3.1850 C   0  0  0  0  0  0  0  0  0  0  0  0
   18.6574   14.1035    6.5831 H   0  0  0  0  0  0  0  0  0  0  0  0
   20.9456   14.1991    7.5348 H   0  0  0  0  0  0  0  0  0  0  0  0
   22.5099   16.0198    6.8717 H   0  0  0  0  0  0  0  0  0  0  0  0
   18.5465   17.7282    3.4299 H   0  0  0  0  0  0  0  0  0  0  0  0
   19.2906   18.9168    4.5606 H   0  0  0  0  0  0  0  0  0  0  0  0
   20.6430   17.3715    2.4261 H   0  0  0  0  0  0  0  0  0  0  0  0
   20.3604   19.0739    2.5282 H   0  0  0  0  0  0  0  0  0  0  0  0
   22.6632   17.7964    3.1109 H   0  0  0  0  0  0  0  0  0  0  0  0
   22.1572   19.4961    3.5535 H   0  0  0  0  0  0  0  0  0  0  0  0
   21.6913   18.9608    5.7133 H   0  0  0  0  0  0  0  0  0  0  0  0
   23.0267   17.7726    5.3607 H   0  0  0  0  0  0  0  0  0  0  0  0
   13.7582   15.0089    3.8969 H   0  0  0  0  0  0  0  0  0  0  0  0
   14.7716   16.5136    3.9206 H   0  0  0  0  0  0  0  0  0  0  0  0
   14.3103   15.6854    6.1938 H   0  0  0  0  0  0  0  0  0  0  0  0
   15.1068   14.1145    5.7529 H   0  0  0  0  0  0  0  0  0  0  0  0
   16.3112   16.8075    6.3028 H   0  0  0  0  0  0  0  0  0  0  0  0
   16.8674   15.1216    6.7384 H   0  0  0  0  0  0  0  0  0  0  0  0
   17.3502   16.6914    4.1813 H   0  0  0  0  0  0  0  0  0  0  0  0
   17.9233   14.6234    3.0212 H   0  0  0  0  0  0  0  0  0  0  0  0
   17.1913   13.6821    4.3838 H   0  0  0  0  0  0  0  0  0  0  0  0
   15.4102   13.7670    2.9179 H   0  0  0  0  0  0  0  0  0  0  0  0
   15.8878   15.4201    2.3053 H   0  0  0  0  0  0  0  0  0  0  0  0
  2  1  2  0
  3  2  1  0
  4  3  2  0
  5  4  1  0
  6  1  1  0
  6  5  2  0
  7  6  1  0
  8  7  1  0
  9  8  1  0
 10  5  1  0
 10  9  1  0
 12 11  1  0
 13 12  1  0
 14  1  1  0
 14 13  1  0
 15 14  1  0
 16 11  1  0
 16 15  1  0
  2 17  1  0
  3 18  1  0
  4 19  1  0
  7 20  1  0
  7 21  1  0
  8 22  1  0
  8 23  1  0
  9 24  1  0
  9 25  1  0
 10 26  1  0
 10 27  1  0
 11 28  1  0
 11 29  1  0
 12 30  1  0
 12 31  1  0
 13 32  1  0
 13 33  1  0
 14 34  1  0
 15 35  1  0
 15 36  1  0
 16 37  1  0
 16 38  1  0
M  CHG  1   8   1
M  END
$$$$
=
     RDKit          3D

 35 36  0  0  0  0  0  0  0  0999 V2000
   18.9430   15.4570    3.5130 N   0  0  0  0  0  0  0  0  0  0  0  0
   20.7020   16.6900    4.6480 C   0  0  0  0  0  0  0  0  0  0  0  0
   21.4950   16.8610    5.7790 C   0  0  0  0  0  0  0  0  0  0  0  0
   21.5100   16.0090    6.8270 N   0  0  0  0  0  0  0  0  0  0  0  0
   20.6550   14.9660    6.7770 C   0  0  0  0  0  0  0  0  0  0  0  0
   19.7930   14.7210    5.7190 C   0  0  0  0  0  0  0  0  0  0  0  0
   19.8150   15.5930    4.6330 C   0  0  0  0  0  0  0  0  0  0  0  0
   20.5930   17.6730    3.6280 N   0  0  0  0  0  0  0  0  0  0  0  0
   17.8910   14.4620    3.7110 C   0  0  0  0  0  0  0  0  0  0  0  0
   16.6120   15.1530    4.2280 C   0  0  0  0  0  0  0  0  0  0  0  0
   15.3670   14.7110    3.4760 N   0  0  0  0  0  4  0  0  0  0  0  0
   15.5780   13.3800    2.7420 C   0  0  0  0  0  0  0  0  0  0  0  0
   14.9650   12.2270    3.5390 C   0  0  0  0  0  0  0  0  0  0  0  0
   13.5510   12.3640    3.7170 O   0  0  0  0  0  0  0  0  0  0  0  0
   13.0810   13.7150    3.7690 C   0  0  0  0  0  0  0  0  0  0  0  0
   14.1130   14.6790    4.3570 C   0  0  0  0  0  0  0  0  0  0  0  0
   19.0447   16.0069    2.6480 H   0  0  0  0  0  0  0  0  0  0  0  0
   22.1495   17.7440    5.8220 H   0  0  0  0  0  0  0  0  0  0  0  0
   20.6412   14.2680    7.6271 H   0  0  0  0  0  0  0  0  0  0  0  0
   19.1090   13.8597    5.7368 H   0  0  0  0  0  0  0  0  0  0  0  0
   19.9929   17.5008    2.8088 H   0  0  0  0  0  0  0  0  0  0  0  0
   21.1141   18.5579    3.7077 H   0  0  0  0  0  0  0  0  0  0  0  0
   17.6757   13.9624    2.7550 H   0  0  0  0  0  0  0  0  0  0  0  0
   18.2270   13.7186    4.4489 H   0  0  0  0  0  0  0  0  0  0  0  0
   16.4856   14.9097    5.2933 H   0  0  0  0  0  0  0  0  0  0  0  0
   16.7303   16.2354    4.0716 H   0  0  0  0  0  0  0  0  0  0  0  0
   15.1996   15.4335    2.7612 H   0  0  0  0  0  0  0  0  0  0  0  0
   15.0989   13.4318    1.7532 H   0  0  0  0  0  0  0  0  0  0  0  0
   16.6577   13.2018    2.6307 H   0  0  0  0  0  0  0  0  0  0  0  0
   15.1621   11.2863    3.0039 H   0  0  0  0  0  0  0  0  0  0  0  0
   15.4261   12.2335    4.5377 H   0  0  0  0  0  0  0  0  0  0  0  0
   12.8367   14.0418    2.7475 H   0  0  0  0  0  0  0  0  0  0  0  0
   12.1984   13.7338    4.4252 H   0  0  0  0  0  0  0  0  0  0  0  0
   13.6793   15.6886    4.4092 H   0  0  0  0  0  0  0  0  0  0  0  0
   14.3904   14.3378    5.3653 H   0  0  0  0  0  0  0  0  0  0  0  0
  3  2  2  0
  4  3  1  0
  5  4  2  0
  6  5  1  0
  7  1  1  0
  7  6  2  0
  7  2  1  0
  8  2  1  0
  9  1  1  0
 10  9  1  0
 11 10  1  0
 12 11  1  0
 13 12  1  0
 14 13  1  0
 15 14  1  0
 16 15  1  0
 16 11  1  0
  1 17  1  0
  3 18  1  0
  5 19  1  0
  6 20  1  0
  8 21  1  0
  8 22  1  0
  9 23  1  0
  9 24  1  0
 10 25  1  0
 10 26  1  0
 11 27  1  0
 12 28  1  0
 12 29  1  0
 13 30  1  0
 13 31  1  0
 15 32  1  0
 15 33  1  0
 16 34  1  0
 16 35  1  0
M  CHG  1  11   1
M  END
$$$$
=
     RDKit          3D

 20 20  0  0  0  0  0  0  0  0999 V2000
   19.2640   14.7420    4.3370 C   0  0  0  0  0  0  0  0  0  0  0  0
   20.1280   15.2920    5.3480 N   0  0  0  0  0  0  0  0  0  0  0  0
   20.3780   14.7330    6.5660 C   0  0  0  0  0  0  0  0  0  0  0  0
   21.2220   15.4890    7.2280 N   0  0  0  0  0  0  0  0  0  0  0  0
   21.5300   16.5660    6.4420 N   0  0  0  0  0  0  0  0  0  0  0  0
   20.8670   16.4460    5.3090 C   0  0  0  0  0  0  0  0  0  0  0  0
   20.9670   17.4230    4.1920 C   0  0  1  0  0  0  0  0  0  0  0  0
   19.7480   18.3300    4.1080 C   0  0  0  0  0  0  0  0  0  0  0  0
   22.1620   18.2880    4.4260 N   0  0  0  0  0  4  0  0  0  0  0  0
   18.4293   14.2106    4.8175 H   0  0  0  0  0  0  0  0  0  0  0  0
   18.8689   15.5551    3.7104 H   0  0  0  0  0  0  0  0  0  0  0  0
   19.8335   14.0398    3.7104 H   0  0  0  0  0  0  0  0  0  0  0  0
   19.9403   13.7942    6.9363 H   0  0  0  0  0  0  0  0  0  0  0  0
   21.0421   16.8529    3.2543 H   0  0  0  0  0  0  0  0  0  0  0  0
   19.4084   18.5827    5.1233 H   0  0  0  0  0  0  0  0  0  0  0  0
   20.0134   19.2520    3.5700 H   0  0  0  0  0  0  0  0  0  0  0  0
   18.9411   17.8109    3.5700 H   0  0  0  0  0  0  0  0  0  0  0  0
   22.3134   18.3976    5.4389 H   0  0  0  0  0  0  0  0  0  0  0  0
   22.9914   17.8502    4.0002 H   0  0  0  0  0  0  0  0  0  0  0  0
   22.0052   19.2127    4.0002 H   0  0  0  0  0  0  0  0  0  0  0  0
  2  1  1  0
  3  2  1  0
  4  3  2  0
  5  4  1  0
  6  2  1  0
  6  5  2  0
  7  6  1  0
  8  7  1  0
  9  7  1  0
  1 10  1  0
  1 11  1  0
  1 12  1  0
  3 13  1  0
  7 14  1  6
  8 15  1  0
  8 16  1  0
  8 17  1  0
  9 18  1  0
  9 19  1  0
  9 20  1  0
M  CHG  1   9   1
M  END
$$$$
=
     RDKit          3D

 36 35  0  0  0  0  0  0  0  0999 V2000
   18.4310   16.2440    3.9310 C   0  0  1  0  0  0  0  0  0  0  0  0
   19.7360   16.6380    3.2570 N   0  0  0  0  0  4  0  0  0  0  0  0
   18.1610   14.7730    3.5310 C   0  0  0  0  0  0  0  0  0  0  0  0
   19.1610   14.1220    3.1930 O   0  0  0  0  0  0  0  0  0  0  0  0
   16.8850   14.2320    3.5570 N   0  0  0  0  0  0  0  0  0  0  0  0
   16.7760   12.8050    3.2070 C   0  0  0  0  0  0  0  0  0  0  0  0
   15.4810   12.4730    2.4790 C   0  0  0  0  0  0  0  0  0  0  0  0
   15.6530   15.0350    3.4790 C   0  0  0  0  0  0  0  0  0  0  0  0
   14.8720   15.1120    4.7830 C   0  0  0  0  0  0  0  0  0  0  0  0
   18.5960   16.4710    5.4560 C   0  0  1  0  0  0  0  0  0  0  0  0
   17.3990   17.2180    6.0480 C   0  0  0  0  0  0  0  0  0  0  0  0
   20.3510   14.9750    6.5920 C   0  0  0  0  0  0  0  0  0  0  0  0
   18.8820   15.1650    6.2350 C   0  0  0  0  0  0  0  0  0  0  0  0
   17.5620   16.8430    3.6210 H   0  0  0  0  0  0  0  0  0  0  0  0
   20.4427   16.8514    3.9753 H   0  0  0  0  0  0  0  0  0  0  0  0
   20.0677   15.8597    2.6696 H   0  0  0  0  0  0  0  0  0  0  0  0
   19.5815   17.4699    2.6696 H   0  0  0  0  0  0  0  0  0  0  0  0
   17.6227   12.5367    2.5580 H   0  0  0  0  0  0  0  0  0  0  0  0
   16.7840   12.2323    4.1461 H   0  0  0  0  0  0  0  0  0  0  0  0
   14.6886   12.2699    3.2145 H   0  0  0  0  0  0  0  0  0  0  0  0
   15.1862   13.3246    1.8482 H   0  0  0  0  0  0  0  0  0  0  0  0
   15.6323   11.5846    1.8482 H   0  0  0  0  0  0  0  0  0  0  0  0
   15.9267   16.0577    3.1805 H   0  0  0  0  0  0  0  0  0  0  0  0
   14.9982   14.5372    2.7486 H   0  0  0  0  0  0  0  0  0  0  0  0
   15.5681   15.0434    5.6319 H   0  0  0  0  0  0  0  0  0  0  0  0
   14.3298   16.0680    4.8298 H   0  0  0  0  0  0  0  0  0  0  0  0
   14.1536   14.2803    4.8298 H   0  0  0  0  0  0  0  0  0  0  0  0
   19.4863   17.1062    5.5738 H   0  0  0  0  0  0  0  0  0  0  0  0
   17.4526   17.1846    7.1462 H   0  0  0  0  0  0  0  0  0  0  0  0
   17.4175   18.2652    5.7117 H   0  0  0  0  0  0  0  0  0  0  0  0
   16.4665   16.7413    5.7117 H   0  0  0  0  0  0  0  0  0  0  0  0
   20.4635   14.9604    7.6861 H   0  0  0  0  0  0  0  0  0  0  0  0
   20.7098   14.0230    6.1738 H   0  0  0  0  0  0  0  0  0  0  0  0
   20.9402   15.8044    6.1738 H   0  0  0  0  0  0  0  0  0  0  0  0
   18.5620   14.3140    5.6158 H   0  0  0  0  0  0  0  0  0  0  0  0
   18.3260   15.2269    7.1821 H   0  0  0  0  0  0  0  0  0  0  0  0
  2  1  1  0
  3  1  1  0
  4  3  2  0
  5  3  1  0
  6  5  1  0
  7  6  1  0
  8  5  1  0
  9  8  1  0
 10  1  1  0
 11 10  1  0
 13 12  1  0
 13 10  1  0
  1 14  1  6
  2 15  1  0
  2 16  1  0
  2 17  1  0
  6 18  1  0
  6 19  1  0
  7 20  1  0
  7 21  1  0
  7 22  1  0
  8 23  1  0
  8 24  1  0
  9 25  1  0
  9 26  1  0
  9 27  1  0
 10 28  1  6
 11 29  1  0
 11 30  1  0
 11 31  1  0
 12 32  1  0
 12 33  1  0
 12 34  1  0
 13 35  1  0
 13 36  1  0
M  CHG  1   2   1
M  END
$$$$
=
     RDKit          3D

 30 31  0  0  0  0  0  0  0  0999 V2000
   20.3280   16.5510    4.3660 C   0  0  1  0  0  0  0  0  0  0  0  0
   21.0840   16.9810    5.6210 C   0  0  0  0  0  0  0  0  0  0  0  0
   21.0540   15.7430    6.5160 C   0  0  0  0  0  0  0  0  0  0  0  0
   19.8380   14.9140    6.0790 C   0  0  0  0  0  0  0  0  0  0  0  0
   19.1850   15.7150    4.9500 C   0  0  1  0  0  0  0  0  0  0  0  0
   18.0510   16.4690    5.4210 N   0  0  0  0  0  0  0  0  0  0  0  0
   16.8650   15.8850    5.0030 C   0  0  0  0  0  0  0  0  0  0  0  0
   15.7720   16.2480    5.3940 O   0  0  0  0  0  0  0  0  0  0  0  0
   17.1570   14.9080    4.1000 N   0  0  0  0  0  0  0  0  0  0  0  0
   18.5040   14.8220    3.9090 C   0  0  0  0  0  0  0  0  0  0  0  0
   19.1010   14.1800    3.0590 O   0  0  0  0  0  0  0  0  0  0  0  0
   16.1650   14.1710    3.3550 C   0  0  0  0  0  0  0  0  0  0  0  0
   19.8660   17.6940    3.4720 C   0  0  0  0  0  0  0  0  0  0  0  0
   19.7730   17.2340    2.0620 N   0  0  0  0  0  4  0  0  0  0  0  0
   20.9626   15.9943    3.6608 H   0  0  0  0  0  0  0  0  0  0  0  0
   22.1192   17.2613    5.3766 H   0  0  0  0  0  0  0  0  0  0  0  0
   20.6353   17.8619    6.1034 H   0  0  0  0  0  0  0  0  0  0  0  0
   21.9773   15.1592    6.3870 H   0  0  0  0  0  0  0  0  0  0  0  0
   20.9821   16.0229    7.5773 H   0  0  0  0  0  0  0  0  0  0  0  0
   20.1563   13.9258    5.7156 H   0  0  0  0  0  0  0  0  0  0  0  0
   19.1415   14.7386    6.9122 H   0  0  0  0  0  0  0  0  0  0  0  0
   18.1130   17.3250    5.9905 H   0  0  0  0  0  0  0  0  0  0  0  0
   15.4831   13.6644    4.0539 H   0  0  0  0  0  0  0  0  0  0  0  0
   15.5922   14.8643    2.7216 H   0  0  0  0  0  0  0  0  0  0  0  0
   16.6635   13.4224    2.7216 H   0  0  0  0  0  0  0  0  0  0  0  0
   18.8776   18.0415    3.8073 H   0  0  0  0  0  0  0  0  0  0  0  0
   20.5932   18.5169    3.5350 H   0  0  0  0  0  0  0  0  0  0  0  0
   19.5689   16.2246    2.0429 H   0  0  0  0  0  0  0  0  0  0  0  0
   19.0185   17.7459    1.5829 H   0  0  0  0  0  0  0  0  0  0  0  0
   20.6671   17.4126    1.5829 H   0  0  0  0  0  0  0  0  0  0  0  0
  2  1  1  0
  3  2  1  0
  4  3  1  0
  5  4  1  0
  5  1  1  0
  6  5  1  0
  7  6  1  0
  8  7  2  0
  9  7  1  0
 10  9  1  0
  5 10  1  6
 11 10  2  0
 12  9  1  0
 13  1  1  0
 14 13  1  0
  1 15  1  6
  2 16  1  0
  2 17  1  0
  3 18  1  0
  3 19  1  0
  4 20  1  0
  4 21  1  0
  6 22  1  0
 12 23  1  0
 12 24  1  0
 12 25  1  0
 13 26  1  0
 13 27  1  0
 14 28  1  0
 14 29  1  0
 14 30  1  0
M  CHG  1  14   1
M  END
$$$$
=
     RDKit          3D

 40 42  0  0  0  0  0  0  0  0999 V2000
   18.4750   13.9570    3.5830 C   0  0  0  0  0  0  0  0  0  0  0  0
   19.1170   13.2880    2.7770 O   0  0  0  0  0  0  0  0  0  0  0  0
   17.0920   13.8610    3.7200 N   0  0  0  0  0  0  0  0  0  0  0  0
   16.3860   12.8640    2.9150 C   0  0  0  0  0  0  0  0  0  0  0  0
   15.0030   12.5000    3.4830 C   0  0  0  0  0  0  0  0  0  0  0  0
   14.1660   13.6920    3.7190 N   0  0  0  0  0  0  0  0  0  0  0  0
   14.8480   14.9950    3.7590 C   0  0  0  0  0  0  0  0  0  0  0  0
   16.2520   14.8690    4.3830 C   0  0  0  0  0  0  0  0  0  0  0  0
   19.5860   16.1960    3.9600 C   0  0  0  0  0  0  0  0  0  0  0  0
   20.2290   17.0590    4.8580 C   0  0  0  0  0  0  0  0  0  0  0  0
   20.5410   16.6500    6.1590 C   0  0  0  0  0  0  0  0  0  0  0  0
   20.1750   15.3820    6.6030 C   0  0  0  0  0  0  0  0  0  0  0  0
   19.4940   14.5220    5.7440 C   0  0  0  0  0  0  0  0  0  0  0  0
   19.2030   14.9260    4.4320 C   0  0  0  0  0  0  0  0  0  0  0  0
   19.1580   16.7130    2.7270 N   0  0  0  0  0  0  0  0  0  0  0  0
   12.7830   13.5990    3.6290 C   0  0  0  0  0  0  0  0  0  0  0  0
   11.9240   14.3790    4.4220 C   0  0  0  0  0  0  0  0  0  0  0  0
   10.5300   14.2750    4.3310 C   0  0  0  0  0  0  0  0  0  0  0  0
    9.9540   13.3780    3.4400 C   0  0  0  0  0  0  0  0  0  0  0  0
   10.7730   12.5870    2.6460 C   0  0  0  0  0  0  0  0  0  0  0  0
   12.1650   12.6990    2.7430 C   0  0  0  0  0  0  0  0  0  0  0  0
   16.2531   13.2644    1.8991 H   0  0  0  0  0  0  0  0  0  0  0  0
   16.9944   11.9476    2.9197 H   0  0  0  0  0  0  0  0  0  0  0  0
   14.4883   11.8417    2.7676 H   0  0  0  0  0  0  0  0  0  0  0  0
   15.1564   11.9983    4.4498 H   0  0  0  0  0  0  0  0  0  0  0  0
   14.9442   15.3815    2.7336 H   0  0  0  0  0  0  0  0  0  0  0  0
   14.2517   15.6820    4.3775 H   0  0  0  0  0  0  0  0  0  0  0  0
   16.7550   15.8447    4.3121 H   0  0  0  0  0  0  0  0  0  0  0  0
   16.1183   14.5480    5.4266 H   0  0  0  0  0  0  0  0  0  0  0  0
   20.4931   18.0764    4.5339 H   0  0  0  0  0  0  0  0  0  0  0  0
   21.0777   17.3329    6.8340 H   0  0  0  0  0  0  0  0  0  0  0  0
   20.4220   15.0612    7.6258 H   0  0  0  0  0  0  0  0  0  0  0  0
   19.1844   13.5263    6.0943 H   0  0  0  0  0  0  0  0  0  0  0  0
   18.6829   16.1005    2.0488 H   0  0  0  0  0  0  0  0  0  0  0  0
   19.3191   17.7048    2.5006 H   0  0  0  0  0  0  0  0  0  0  0  0
   12.3597   15.0932    5.1362 H   0  0  0  0  0  0  0  0  0  0  0  0
    9.8900   14.9049    4.9664 H   0  0  0  0  0  0  0  0  0  0  0  0
    8.8597   13.2954    3.3645 H   0  0  0  0  0  0  0  0  0  0  0  0
   10.3275   11.8711    1.9395 H   0  0  0  0  0  0  0  0  0  0  0  0
   12.7958   12.0622    2.1054 H   0  0  0  0  0  0  0  0  0  0  0  0
  2  1  2  0
  3  1  1  0
  4  3  1  0
  5  4  1  0
  6  5  1  0
  7  6  1  0
  8  7  1  0
  8  3  1  0
 10  9  2  0
 11 10  1  0
 12 11  2  0
 13 12  1  0
 14  9  1  0
 14  1  1  0
 14 13  2  0
 15  9  1  0
 16  6  1  0
 17 16  2  0
 18 17  1  0
 19 18  2  0
 20 19  1  0
 21 20  2  0
 21 16  1  0
  4 22  1  0
  4 23  1  0
  5 24  1  0
  5 25  1  0
  7 26  1  0
  7 27  1  0
  8 28  1  0
  8 29  1  0
 10 30  1  0
 11 31  1  0
 12 32  1  0
 13 33  1  0
 15 34  1  0
 15 35  1  0
 17 36  1  0
 18 37  1  0
 19 38  1  0
 20 39  1  0
 21 40  1  0
M  END
$$$$
=
     RDKit          3D

 30 31  0  0  0  0  0  0  0  0999 V2000
   18.8810   14.9750    4.2080 C   0  0  0  0  0  0  0  0  0  0  0  0
   19.4440   15.3030    3.1800 O   0  0  0  0  0  0  0  0  0  0  0  0
   19.5120   15.1570    5.6030 C   0  0  0  0  0  0  0  0  0  0  0  0
   18.8810   15.0210    6.6350 O   0  0  0  0  0  0  0  0  0  0  0  0
   20.8210   15.4760    5.4780 O   0  0  0  0  0  0  0  0  0  0  0  0
   21.1940   16.7050    6.1260 C   0  0  1  0  0  0  0  0  0  0  0  0
   22.6420   16.8580    6.2590 O   0  0  0  0  0  0  0  0  0  0  0  0
   22.5080   18.2760    5.9460 C   0  0  0  0  0  0  0  0  0  0  0  0
   21.1790   17.9810    5.2220 C   0  0  1  0  0  0  0  0  0  0  0  0
   21.3590   17.6870    3.7680 N   0  0  0  0  0  4  0  0  0  0  0  0
   17.6520   14.4170    4.3270 O   0  0  0  0  0  0  0  0  0  0  0  0
   15.8280   16.0590    4.9920 C   0  0  2  0  0  0  0  0  0  0  0  0
   14.5780   15.6160    4.2060 C   0  0  0  0  0  0  0  0  0  0  0  0
   15.3410   14.5150    3.6330 O   0  0  0  0  0  0  0  0  0  0  0  0
   16.5750   15.2570    3.8780 C   0  0  2  0  0  0  0  0  0  0  0  0
   15.9200   15.4320    6.3450 N   0  0  0  0  0  4  0  0  0  0  0  0
   20.5242   16.6435    6.9964 H   0  0  0  0  0  0  0  0  0  0  0  0
   22.4058   18.9244    6.8287 H   0  0  0  0  0  0  0  0  0  0  0  0
   23.3178   18.8148    5.4322 H   0  0  0  0  0  0  0  0  0  0  0  0
   20.3332   18.6814    5.1584 H   0  0  0  0  0  0  0  0  0  0  0  0
   21.8937   16.8136    3.6580 H   0  0  0  0  0  0  0  0  0  0  0  0
   20.4364   17.5833    3.3219 H   0  0  0  0  0  0  0  0  0  0  0  0
   21.8709   18.4615    3.3219 H   0  0  0  0  0  0  0  0  0  0  0  0
   16.0594   17.0998    5.2625 H   0  0  0  0  0  0  0  0  0  0  0  0
   13.7362   15.2993    4.8393 H   0  0  0  0  0  0  0  0  0  0  0  0
   14.0440   16.3253    3.5566 H   0  0  0  0  0  0  0  0  0  0  0  0
   17.1085   15.7954    3.0808 H   0  0  0  0  0  0  0  0  0  0  0  0
   15.8135   16.1580    7.0678 H   0  0  0  0  0  0  0  0  0  0  0  0
   15.1729   14.7308    6.4500 H   0  0  0  0  0  0  0  0  0  0  0  0
   16.8371   14.9750    6.4500 H   0  0  0  0  0  0  0  0  0  0  0  0
  2  1  2  0
  3  1  1  0
  4  3  2  0
  5  3  1  0
  6  5  1  0
  7  6  1  0
  8  7  1  0
  9  6  1  0
  9  8  1  0
 10  9  1  0
 11  1  1  0
 13 12  1  0
 14 13  1  0
 15 14  1  0
 15 12  1  0
 15 11  1  0
 16 12  1  0
  6 17  1  1
  8 18  1  0
  8 19  1  0
  9 20  1  6
 10 21  1  0
 10 22  1  0
 10 23  1  0
 12 24  1  1
 13 25  1  0
 13 26  1  0
 15 27  1  6
 16 28  1  0
 16 29  1  0
 16 30  1  0
M  CHG  2  10   1  16   1
M  END
$$$$
=
     RDKit          3D

 57 60  0  0  0  0  0  0  0  0999 V2000
   18.0110   12.5000    3.1890 O   0  0  0  0  0  0  0  0  0  0  0  0
   17.5110   13.6140    3.3350 C   0  0  0  0  0  0  0  0  0  0  0  0
   16.1920   13.8400    2.9760 N   0  0  0  0  0  0  0  0  0  0  0  0
   18.2470   14.7490    3.8860 C   0  0  0  0  0  0  0  0  0  0  0  0
   18.8340   14.6960    5.1330 N   0  0  0  0  0  0  0  0  0  0  0  0
   19.4220   15.8570    5.3740 N   0  0  0  0  0  0  0  0  0  0  0  0
   19.2270   16.6420    4.2980 N   0  0  0  0  0  0  0  0  0  0  0  0
   18.4980   15.9970    3.3420 C   0  0  0  0  0  0  0  0  0  0  0  0
   19.7640   18.0000    4.2810 C   0  0  2  0  0  0  0  0  0  0  0  0
   21.0390   18.0860    3.4300 C   0  0  0  0  0  0  0  0  0  0  0  0
   22.2800   17.4450    4.0720 C   0  0  0  0  0  0  0  0  0  0  0  0
   22.4010   17.6670    5.5850 C   0  0  1  0  0  0  0  0  0  0  0  0
   21.4510   18.7480    6.0990 C   0  0  0  0  0  0  0  0  0  0  0  0
   19.9810   18.5510    5.7060 C   0  0  0  0  0  0  0  0  0  0  0  0
   22.1380   16.3870    6.2970 N   0  0  0  0  0  4  0  0  0  0  0  0
   15.3250   12.7270    2.6220 C   0  0  0  0  0  0  0  0  0  0  0  0
   14.5680   12.1050    3.8200 C   0  0  0  0  0  0  0  0  0  0  0  0
   13.1040   12.4970    3.8480 N   0  0  1  0  0  4  0  0  0  0  0  0
   12.9140   13.9890    4.0440 C   0  0  0  0  0  0  0  0  0  0  0  0
   11.4440   14.2860    4.3380 C   0  0  0  0  0  0  0  0  0  0  0  0
   10.5050   13.6190    3.3680 C   0  0  0  0  0  0  0  0  0  0  0  0
   10.9310   12.5420    2.5680 C   0  0  0  0  0  0  0  0  0  0  0  0
   12.3570   12.0600    2.5970 C   0  0  0  0  0  0  0  0  0  0  0  0
   10.0210   11.9390    1.6850 C   0  0  0  0  0  0  0  0  0  0  0  0
    8.7010   12.3790    1.6190 C   0  0  0  0  0  0  0  0  0  0  0  0
    8.2760   13.4290    2.4280 C   0  0  0  0  0  0  0  0  0  0  0  0
    9.1710   14.0460    3.3000 C   0  0  0  0  0  0  0  0  0  0  0  0
   15.8233   14.8016    2.9597 H   0  0  0  0  0  0  0  0  0  0  0  0
   18.1814   16.3815    2.3612 H   0  0  0  0  0  0  0  0  0  0  0  0
   19.0106   18.6453    3.8055 H   0  0  0  0  0  0  0  0  0  0  0  0
   20.8475   17.5795    2.4725 H   0  0  0  0  0  0  0  0  0  0  0  0
   21.2652   19.1562    3.3137 H   0  0  0  0  0  0  0  0  0  0  0  0
   22.2420   16.3615    3.8858 H   0  0  0  0  0  0  0  0  0  0  0  0
   23.1546   17.9302    3.6141 H   0  0  0  0  0  0  0  0  0  0  0  0
   23.4253   18.0143    5.7853 H   0  0  0  0  0  0  0  0  0  0  0  0
   21.5127   18.7641    7.1972 H   0  0  0  0  0  0  0  0  0  0  0  0
   21.7729   19.6910    5.6330 H   0  0  0  0  0  0  0  0  0  0  0  0
   19.4734   19.5242    5.7783 H   0  0  0  0  0  0  0  0  0  0  0  0
   19.5725   17.7982    6.3963 H   0  0  0  0  0  0  0  0  0  0  0  0
   22.1708   16.5468    7.3140 H   0  0  0  0  0  0  0  0  0  0  0  0
   21.2068   16.0334    6.0349 H   0  0  0  0  0  0  0  0  0  0  0  0
   22.8543   15.6949    6.0349 H   0  0  0  0  0  0  0  0  0  0  0  0
   14.5826   13.0863    1.8941 H   0  0  0  0  0  0  0  0  0  0  0  0
   15.9746   11.9380    2.2151 H   0  0  0  0  0  0  0  0  0  0  0  0
   14.6386   11.0094    3.7516 H   0  0  0  0  0  0  0  0  0  0  0  0
   15.0331   12.4833    4.7422 H   0  0  0  0  0  0  0  0  0  0  0  0
   12.7065   11.9991    4.6573 H   0  0  0  0  0  0  0  0  0  0  0  0
   13.5318   14.3286    4.8884 H   0  0  0  0  0  0  0  0  0  0  0  0
   13.2170   14.5185    3.1287 H   0  0  0  0  0  0  0  0  0  0  0  0
   11.2105   13.9311    5.3526 H   0  0  0  0  0  0  0  0  0  0  0  0
   11.3013   15.3724    4.2408 H   0  0  0  0  0  0  0  0  0  0  0  0
   12.3570   10.9608    2.5542 H   0  0  0  0  0  0  0  0  0  0  0  0
   12.8730   12.5032    1.7325 H   0  0  0  0  0  0  0  0  0  0  0  0
   10.3532   11.1122    1.0400 H   0  0  0  0  0  0  0  0  0  0  0  0
    7.9944   11.8967    0.9275 H   0  0  0  0  0  0  0  0  0  0  0  0
    7.2321   13.7723    2.3789 H   0  0  0  0  0  0  0  0  0  0  0  0
    8.8288   14.8733    3.9391 H   0  0  0  0  0  0  0  0  0  0  0  0
  2  1  2  0
  3  2  1  0
  4  2  1  0
  5  4  1  0
  6  5  2  0
  7  6  1  0
  8  4  2  0
  8  7  1  0
  9  7  1  0
 10  9  1  0
 11 10  1  0
 12 11  1  0
 13 12  1  0
 14  9  1  0
 14 13  1  0
 15 12  1  0
 16  3  1  0
 17 16  1  0
 18 17  1  0
 19 18  1  0
 20 19  1  0
 21 20  1  0
 22 21  2  0
 23 22  1  0
 23 18  1  0
 24 22  1  0
 25 24  2  0
 26 25  1  0
 27 26  2  0
 27 21  1  0
  3 28  1  0
  8 29  1  0
  9 30  1  6
 10 31  1  0
 10 32  1  0
 11 33  1  0
 11 34  1  0
 12 35  1  6
 13 36  1  0
 13 37  1  0
 14 38  1  0
 14 39  1  0
 15 40  1  0
 15 41  1  0
 15 42  1  0
 16 43  1  0
 16 44  1  0
 17 45  1  0
 17 46  1  0
 18 47  1  1
 19 48  1  0
 19 49  1  0
 20 50  1  0
 20 51  1  0
 23 52  1  0
 23 53  1  0
 24 54  1  0
 25 55  1  0
 26 56  1  0
 27 57  1  0
M  CHG  2  15   1  18   1
M  END
$$$$
=
     RDKit          3D

 19 19  0  0  0  0  0  0  0  0999 V2000
   21.6250   17.3800    5.5810 C   0  0  0  0  0  0  0  0  0  0  0  0
   22.9590   18.1200    5.7880 C   0  0  0  0  0  0  0  0  0  0  0  0
   22.5340   19.0700    4.7440 N   0  0  0  0  0  4  0  0  0  0  0  0
   21.6170   18.0520    4.1950 C   0  0  0  0  0  0  0  0  0  0  0  0
   20.2420   15.2920    5.0670 C   0  0  0  0  0  0  0  0  0  0  0  0
   21.5240   15.8640    5.6470 C   0  0  2  0  0  0  0  0  0  0  0  0
   21.5970   15.5190    7.0250 O   0  0  0  0  0  0  0  0  0  0  0  0
   20.8129   17.4616    6.3185 H   0  0  0  0  0  0  0  0  0  0  0  0
   23.0849   18.5644    6.7863 H   0  0  0  0  0  0  0  0  0  0  0  0
   23.9231   17.5939    5.7279 H   0  0  0  0  0  0  0  0  0  0  0  0
   22.0615   19.9103    5.1067 H   0  0  0  0  0  0  0  0  0  0  0  0
   23.2309   19.5262    4.1381 H   0  0  0  0  0  0  0  0  0  0  0  0
   22.0443   17.4396    3.3874 H   0  0  0  0  0  0  0  0  0  0  0  0
   20.6771   18.3329    3.6972 H   0  0  0  0  0  0  0  0  0  0  0  0
   19.5709   14.9926    5.8855 H   0  0  0  0  0  0  0  0  0  0  0  0
   19.7474   16.0548    4.4477 H   0  0  0  0  0  0  0  0  0  0  0  0
   20.4793   14.4144    4.4477 H   0  0  0  0  0  0  0  0  0  0  0  0
   22.3370   15.4412    5.0386 H   0  0  0  0  0  0  0  0  0  0  0  0
   21.4267   16.3236    7.5761 H   0  0  0  0  0  0  0  0  0  0  0  0
  2  1  1  0
  3  2  1  0
  4  1  1  0
  4  3  1  0
  6  5  1  0
  6  1  1  0
  7  6  1  0
  1  8  1  0
  2  9  1  0
  2 10  1  0
  3 11  1  0
  3 12  1  0
  4 13  1  0
  4 14  1  0
  5 15  1  0
  5 16  1  0
  5 17  1  0
  6 18  1  6
  7 19  1  0
M  CHG  1   3   1
M  END
$$$$
=
     RDKit          3D

 30 32  0  0  0  0  0  0  0  0999 V2000
   18.8980   15.5470    3.3160 C   0  0  1  0  0  0  0  0  0  0  0  0
   19.1600   14.6580    4.4950 C   0  0  0  0  0  0  0  0  0  0  0  0
   17.7740   15.2490    4.3040 C   0  0  1  0  0  0  0  0  0  0  0  0
   17.3350   16.3430    5.2680 C   0  0  0  0  0  0  0  0  0  0  0  0
   16.1580   15.8550    6.1020 C   0  0  0  0  0  0  0  0  0  0  0  0
   15.0400   15.5780    5.2560 O   0  0  0  0  0  0  0  0  0  0  0  0
   15.3110   14.5930    4.3340 C   0  0  0  0  0  0  0  0  0  0  0  0
   16.6140   14.3540    3.8460 C   0  0  0  0  0  0  0  0  0  0  0  0
   16.7520   13.2870    2.9350 C   0  0  0  0  0  0  0  0  0  0  0  0
   15.6500   12.5370    2.5070 C   0  0  0  0  0  0  0  0  0  0  0  0
   14.3770   12.8310    2.9800 C   0  0  0  0  0  0  0  0  0  0  0  0
   14.2050   13.8630    3.8940 C   0  0  0  0  0  0  0  0  0  0  0  0
   19.6670   17.4990    1.9750 C   0  0  0  0  0  0  0  0  0  0  0  0
   19.5290   16.8870    3.3240 N   0  0  0  0  0  4  0  0  0  0  0  0
   19.0011   15.4586    2.2244 H   0  0  0  0  0  0  0  0  0  0  0  0
   19.3219   13.5806    4.3436 H   0  0  0  0  0  0  0  0  0  0  0  0
   19.8939   14.6561    5.3144 H   0  0  0  0  0  0  0  0  0  0  0  0
   18.1721   16.6005    5.9335 H   0  0  0  0  0  0  0  0  0  0  0  0
   17.0301   17.2309    4.6947 H   0  0  0  0  0  0  0  0  0  0  0  0
   16.4460   14.9379    6.6367 H   0  0  0  0  0  0  0  0  0  0  0  0
   15.8790   16.6364    6.8242 H   0  0  0  0  0  0  0  0  0  0  0  0
   17.7518   13.0372    2.5503 H   0  0  0  0  0  0  0  0  0  0  0  0
   15.7925   11.7119    1.7936 H   0  0  0  0  0  0  0  0  0  0  0  0
   13.5101   12.2498    2.6326 H   0  0  0  0  0  0  0  0  0  0  0  0
   13.1999   14.1045    4.2702 H   0  0  0  0  0  0  0  0  0  0  0  0
   19.9079   18.5672    2.0799 H   0  0  0  0  0  0  0  0  0  0  0  0
   20.4737   16.9936    1.4239 H   0  0  0  0  0  0  0  0  0  0  0  0
   18.7214   17.3887    1.4239 H   0  0  0  0  0  0  0  0  0  0  0  0
   18.9537   17.5124    3.9061 H   0  0  0  0  0  0  0  0  0  0  0  0
   20.4822   16.7653    3.6949 H   0  0  0  0  0  0  0  0  0  0  0  0
  2  1  1  0
  3  2  1  1
  3  1  1  0
  4  3  1  0
  5  4  1  0
  6  5  1  0
  7  6  1  0
  8  7  2  0
  8  3  1  0
  9  8  1  0
 10  9  2  0
 11 10  1  0
 12 11  2  0
 12  7  1  0
 14  1  1  0
 14 13  1  0
  1 15  1  6
  2 16  1  0
  2 17  1  0
  4 18  1  0
  4 19  1  0
  5 20  1  0
  5 21  1  0
  9 22  1  0
 10 23  1  0
 11 24  1  0
 12 25  1  0
 13 26  1  0
 13 27  1  0
 13 28  1  0
 14 29  1  0
 14 30  1  0
M  CHG  1  14   1
M  END
$$$$
=
     RDKit          3D

 25 26  0  0  0  0  0  0  0  0999 V2000
   19.7630   15.6250    4.9020 C   0  0  0  0  0  0  0  0  0  0  0  0
   20.0480   14.7930    5.9750 C   0  0  0  0  0  0  0  0  0  0  0  0
   21.1560   15.2830    6.6220 N   0  0  0  0  0  0  0  0  0  0  0  0
   21.5990   16.4050    5.9850 C   0  0  0  0  0  0  0  0  0  0  0  0
   20.7530   16.6600    4.9100 C   0  0  0  0  0  0  0  0  0  0  0  0
   21.0410   17.7930    4.1290 C   0  0  0  0  0  0  0  0  0  0  0  0
   22.1470   18.5670    4.4900 C   0  0  0  0  0  0  0  0  0  0  0  0
   22.9080   18.1900    5.5890 C   0  0  0  0  0  0  0  0  0  0  0  0
   22.6740   17.1130    6.3690 N   0  0  0  0  0  0  0  0  0  0  0  0
   18.6520   15.4720    3.9190 C   0  0  2  0  0  0  0  0  0  0  0  0
   17.5490   16.3570    4.2010 O   0  0  0  0  0  0  0  0  0  0  0  0
   18.0720   14.0430    3.9230 C   0  0  0  0  0  0  0  0  0  0  0  0
   18.8100   13.2310    2.9060 N   0  0  0  0  0  4  0  0  0  0  0  0
   19.4824   13.8934    6.2594 H   0  0  0  0  0  0  0  0  0  0  0  0
   21.5866   14.8669    7.4601 H   0  0  0  0  0  0  0  0  0  0  0  0
   20.4172   18.0610    3.2635 H   0  0  0  0  0  0  0  0  0  0  0  0
   22.4117   19.4639    3.9108 H   0  0  0  0  0  0  0  0  0  0  0  0
   23.7722   18.8206    5.8449 H   0  0  0  0  0  0  0  0  0  0  0  0
   19.1023   15.7111    2.9443 H   0  0  0  0  0  0  0  0  0  0  0  0
   17.4390   16.4453    5.1809 H   0  0  0  0  0  0  0  0  0  0  0  0
   18.1976   13.5939    4.9192 H   0  0  0  0  0  0  0  0  0  0  0  0
   16.9996   14.0697    3.6795 H   0  0  0  0  0  0  0  0  0  0  0  0
   19.4233   12.5562    3.3848 H   0  0  0  0  0  0  0  0  0  0  0  0
   18.1350   12.7233    2.3165 H   0  0  0  0  0  0  0  0  0  0  0  0
   19.3797   13.8545    2.3165 H   0  0  0  0  0  0  0  0  0  0  0  0
  2  1  2  0
  3  2  1  0
  4  3  1  0
  5  1  1  0
  5  4  2  0
  6  5  1  0
  7  6  2  0
  8  7  1  0
  9  4  1  0
  9  8  2  0
 10  1  1  0
 11 10  1  0
 12 10  1  0
 13 12  1  0
  2 14  1  0
  3 15  1  0
  6 16  1  0
  7 17  1  0
  8 18  1  0
 10 19  1  6
 11 20  1  0
 12 21  1  0
 12 22  1  0
 13 23  1  0
 13 24  1  0
 13 25  1  0
M  CHG  1  13   1
M  END
$$$$
=
     RDKit          3D

 44 45  0  0  0  0  0  0  0  0999 V2000
   18.1470   15.9410    5.7520 C   0  0  0  0  0  0  0  0  0  0  0  0
   17.3760   15.4870    6.8630 C   0  0  0  0  0  0  0  0  0  0  0  0
   16.0530   15.4820    6.4850 C   0  0  0  0  0  0  0  0  0  0  0  0
   15.9760   15.9280    5.1920 N   0  0  0  0  0  0  0  0  0  0  0  0
   17.2460   16.1700    4.7250 C   0  0  0  0  0  0  0  0  0  0  0  0
   19.6350   16.1080    5.6780 C   0  0  1  0  0  0  0  0  0  0  0  0
   20.3950   15.0890    6.5200 C   0  0  0  0  0  0  0  0  0  0  0  0
   20.0360   15.9920    4.2380 N   0  0  0  0  0  4  0  0  0  0  0  0
   20.2840   17.2660    3.5120 C   0  0  0  0  0  0  0  0  0  0  0  0
   20.6920   18.3640    4.4900 C   0  0  0  0  0  0  0  0  0  0  0  0
   22.8750   18.0450    5.7770 C   0  0  0  0  0  0  0  0  0  0  0  0
   22.1920   18.6650    4.5670 C   0  0  0  0  0  0  0  0  0  0  0  0
   14.7410   16.0930    4.4260 C   0  0  0  0  0  0  0  0  0  0  0  0
   14.1290   14.7660    4.0620 C   0  0  0  0  0  0  0  0  0  0  0  0
   14.8970   13.7710    3.4370 C   0  0  0  0  0  0  0  0  0  0  0  0
   14.3260   12.5420    3.0990 C   0  0  0  0  0  0  0  0  0  0  0  0
   12.9850   12.2960    3.3770 C   0  0  0  0  0  0  0  0  0  0  0  0
   12.2090   13.2770    3.9910 C   0  0  0  0  0  0  0  0  0  0  0  0
   12.7770   14.5060    4.3330 C   0  0  0  0  0  0  0  0  0  0  0  0
   17.7694   15.1930    7.8473 H   0  0  0  0  0  0  0  0  0  0  0  0
   15.2040   15.1733    7.1125 H   0  0  0  0  0  0  0  0  0  0  0  0
   17.5040   16.4920    3.7053 H   0  0  0  0  0  0  0  0  0  0  0  0
   19.8957   17.0937    6.0908 H   0  0  0  0  0  0  0  0  0  0  0  0
   20.2354   15.3030    7.5871 H   0  0  0  0  0  0  0  0  0  0  0  0
   20.0290   14.0775    6.2902 H   0  0  0  0  0  0  0  0  0  0  0  0
   21.4689   15.1514    6.2902 H   0  0  0  0  0  0  0  0  0  0  0  0
   20.9021   15.4359    4.1985 H   0  0  0  0  0  0  0  0  0  0  0  0
   19.2286   15.5620    3.7647 H   0  0  0  0  0  0  0  0  0  0  0  0
   21.0906   17.1148    2.7795 H   0  0  0  0  0  0  0  0  0  0  0  0
   19.3599   17.5703    2.9987 H   0  0  0  0  0  0  0  0  0  0  0  0
   20.1770   19.2893    4.1925 H   0  0  0  0  0  0  0  0  0  0  0  0
   20.4098   17.9955    5.4873 H   0  0  0  0  0  0  0  0  0  0  0  0
   22.4289   18.4499    6.6973 H   0  0  0  0  0  0  0  0  0  0  0  0
   22.7413   16.9534    5.7542 H   0  0  0  0  0  0  0  0  0  0  0  0
   23.9486   18.2834    5.7542 H   0  0  0  0  0  0  0  0  0  0  0  0
   22.6725   18.2742    3.6579 H   0  0  0  0  0  0  0  0  0  0  0  0
   22.2984   19.7559    4.6596 H   0  0  0  0  0  0  0  0  0  0  0  0
   14.0206   16.6640    5.0301 H   0  0  0  0  0  0  0  0  0  0  0  0
   14.9841   16.6252    3.4945 H   0  0  0  0  0  0  0  0  0  0  0  0
   15.9568   13.9607    3.2117 H   0  0  0  0  0  0  0  0  0  0  0  0
   14.9372   11.7676    2.6124 H   0  0  0  0  0  0  0  0  0  0  0  0
   12.5373   11.3268    3.1120 H   0  0  0  0  0  0  0  0  0  0  0  0
   11.1479   13.0831    4.2065 H   0  0  0  0  0  0  0  0  0  0  0  0
   12.1598   15.2762    4.8186 H   0  0  0  0  0  0  0  0  0  0  0  0
  2  1  1  0
  3  2  2  0
  4  3  1  0
  5  4  1  0
  5  1  2  0
  6  1  1  0
  7  6  1  0
  8  6  1  0
  9  8  1  0
 10  9  1  0
 12 10  1  0
 12 11  1  0
 13  4  1  0
 14 13  1  0
 15 14  2  0
 16 15  1  0
 17 16  2  0
 18 17  1  0
 19 18  2  0
 19 14  1  0
  2 20  1  0
  3 21  1  0
  5 22  1  0
  6 23  1  1
  7 24  1  0
  7 25  1  0
  7 26  1  0
  8 27  1  0
  8 28  1  0
  9 29  1  0
  9 30  1  0
 10 31  1  0
 10 32  1  0
 11 33  1  0
 11 34  1  0
 11 35  1  0
 12 36  1  0
 12 37  1  0
 13 38  1  0
 13 39  1  0
 15 40  1  0
 16 41  1  0
 17 42  1  0
 18 43  1  0
 19 44  1  0
M  CHG  1   8   1
M  END
$$$$
=
     RDKit          3D

 45 47  0  0  0  0  0  0  0  0999 V2000
   14.2800   13.9930    3.7030 C   0  0  0  0  0  0  0  0  0  0  0  0
   14.8590   15.0290    4.3580 N   0  0  0  0  0  0  0  0  0  0  0  0
   16.2100   15.0900    4.3080 C   0  0  0  0  0  0  0  0  0  0  0  0
   16.9880   14.1460    3.6460 C   0  0  0  0  0  0  0  0  0  0  0  0
   16.4180   13.1080    2.9860 N   0  0  0  0  0  0  0  0  0  0  0  0
   15.0570   13.0560    3.0300 C   0  0  0  0  0  0  0  0  0  0  0  0
   10.7710   13.2370    3.3500 N   0  0  0  0  0  0  0  0  0  0  0  0
   10.6170   14.2780    4.1920 N   0  0  0  0  0  0  0  0  0  0  0  0
   11.8670   14.6800    4.4300 C   0  0  0  0  0  0  0  0  0  0  0  0
   12.8330   13.9110    3.7420 C   0  0  0  0  0  0  0  0  0  0  0  0
   12.0790   12.9820    3.0500 C   0  0  0  0  0  0  0  0  0  0  0  0
    9.9950   11.5230    1.7500 C   0  0  0  0  0  0  0  0  0  0  0  0
    9.6080   12.5070    2.8530 C   0  0  0  0  0  0  0  0  0  0  0  0
    8.5060   13.4590    2.3900 C   0  0  0  0  0  0  0  0  0  0  0  0
   18.4880   14.2960    3.6020 C   0  0  0  0  0  0  0  0  0  0  0  0
   19.0160   15.6380    4.1550 C   0  0  0  0  0  0  0  0  0  0  0  0
   19.2970   16.6620    3.0310 C   0  0  0  0  0  0  0  0  0  0  0  0
   20.3370   17.7120    3.4040 C   0  0  0  0  0  0  0  0  0  0  0  0
   20.3190   17.9240    4.8760 N   0  0  0  0  0  4  0  0  0  0  0  0
   20.7350   16.7290    5.6720 C   0  0  0  0  0  0  0  0  0  0  0  0
   20.2780   15.4340    5.0020 C   0  0  0  0  0  0  0  0  0  0  0  0
   16.7164   15.9249    4.8144 H   0  0  0  0  0  0  0  0  0  0  0  0
   14.5479   12.2326    2.5077 H   0  0  0  0  0  0  0  0  0  0  0  0
   12.1191   15.5215    5.0921 H   0  0  0  0  0  0  0  0  0  0  0  0
   12.4585   12.1909    2.3865 H   0  0  0  0  0  0  0  0  0  0  0  0
   10.3619   10.5902    2.2030 H   0  0  0  0  0  0  0  0  0  0  0  0
    9.1150   11.3065    1.1265 H   0  0  0  0  0  0  0  0  0  0  0  0
   10.7867   11.9639    1.1265 H   0  0  0  0  0  0  0  0  0  0  0  0
    9.2054   11.9202    3.6918 H   0  0  0  0  0  0  0  0  0  0  0  0
    8.0038   13.8929    3.2672 H   0  0  0  0  0  0  0  0  0  0  0  0
    8.9476   14.2644    1.7847 H   0  0  0  0  0  0  0  0  0  0  0  0
    7.7733   12.9051    1.7847 H   0  0  0  0  0  0  0  0  0  0  0  0
   18.9318   13.4823    4.1944 H   0  0  0  0  0  0  0  0  0  0  0  0
   18.7739   14.2620    2.5404 H   0  0  0  0  0  0  0  0  0  0  0  0
   18.2197   16.0460    4.7949 H   0  0  0  0  0  0  0  0  0  0  0  0
   19.6565   16.1163    2.1461 H   0  0  0  0  0  0  0  0  0  0  0  0
   18.3547   17.1966    2.8406 H   0  0  0  0  0  0  0  0  0  0  0  0
   21.3346   17.3664    3.0952 H   0  0  0  0  0  0  0  0  0  0  0  0
   20.1034   18.6580    2.8936 H   0  0  0  0  0  0  0  0  0  0  0  0
   20.9594   18.6994    5.0986 H   0  0  0  0  0  0  0  0  0  0  0  0
   19.3426   18.1265    5.1341 H   0  0  0  0  0  0  0  0  0  0  0  0
   21.8314   16.7202    5.7600 H   0  0  0  0  0  0  0  0  0  0  0  0
   20.2673   16.7916    6.6656 H   0  0  0  0  0  0  0  0  0  0  0  0
   20.0655   14.6872    5.7812 H   0  0  0  0  0  0  0  0  0  0  0  0
   21.0836   15.0951    4.3340 H   0  0  0  0  0  0  0  0  0  0  0  0
  2  1  2  0
  3  2  1  0
  4  3  2  0
  5  4  1  0
  6  1  1  0
  6  5  2  0
  8  7  1  0
  9  8  2  0
 10  9  1  0
 10  1  1  0
 11  7  1  0
 11 10  2  0
 13 12  1  0
 13  7  1  0
 14 13  1  0
 15  4  1  0
 16 15  1  0
 17 16  1  0
 18 17  1  0
 19 18  1  0
 20 19  1  0
 21 16  1  0
 21 20  1  0
  3 22  1  0
  6 23  1  0
  9 24  1  0
 11 25  1  0
 12 26  1  0
 12 27  1  0
 12 28  1  0
 13 29  1  0
 14 30  1  0
 14 31  1  0
 14 32  1  0
 15 33  1  0
 15 34  1  0
 16 35  1  0
 17 36  1  0
 17 37  1  0
 18 38  1  0
 18 39  1  0
 19 40  1  0
 19 41  1  0
 20 42  1  0
 20 43  1  0
 21 44  1  0
 21 45  1  0
M  CHG  1  19   1
M  END
$$$$
=
     RDKit          3D

 22 23  0  0  0  0  0  0  0  0999 V2000
   18.5440   16.8860    5.3900 C   0  0  0  0  0  0  0  0  0  0  0  0
   18.9680   17.7270    4.4250 N   0  0  0  0  0  0  0  0  0  0  0  0
   20.2650   17.6610    4.0830 C   0  0  0  0  0  0  0  0  0  0  0  0
   21.1570   16.7990    4.6680 C   0  0  0  0  0  0  0  0  0  0  0  0
   20.6440   15.9840    5.6470 C   0  0  0  0  0  0  0  0  0  0  0  0
   19.3570   16.0040    6.0110 N   0  0  0  0  0  0  0  0  0  0  0  0
   21.4590   15.0530    6.2900 N   0  0  0  0  0  0  0  0  0  0  0  0
   16.4040   15.1190    3.9870 C   0  0  0  0  0  0  0  0  0  0  0  0
   16.0500   16.0540    5.0950 C   0  0  1  0  0  0  0  0  0  0  0  0
   16.4600   15.7360    6.5050 C   0  0  0  0  0  0  0  0  0  0  0  0
   17.0880   16.9150    5.7920 C   0  0  1  0  0  0  0  0  0  0  0  0
   20.6309   18.3331    3.2928 H   0  0  0  0  0  0  0  0  0  0  0  0
   22.2158   16.7628    4.3719 H   0  0  0  0  0  0  0  0  0  0  0  0
   21.0671   14.4451    7.0234 H   0  0  0  0  0  0  0  0  0  0  0  0
   22.4529   14.9732    6.0316 H   0  0  0  0  0  0  0  0  0  0  0  0
   16.7636   14.1692    4.4095 H   0  0  0  0  0  0  0  0  0  0  0  0
   15.5147   14.9313    3.3674 H   0  0  0  0  0  0  0  0  0  0  0  0
   17.1946   15.5673    3.3674 H   0  0  0  0  0  0  0  0  0  0  0  0
   15.1042   16.2687    4.5760 H   0  0  0  0  0  0  0  0  0  0  0  0
   15.7562   15.9067    7.3330 H   0  0  0  0  0  0  0  0  0  0  0  0
   16.8482   14.8431    7.0169 H   0  0  0  0  0  0  0  0  0  0  0  0
   17.1942   17.9913    5.9926 H   0  0  0  0  0  0  0  0  0  0  0  0
  2  1  2  0
  3  2  1  0
  4  3  2  0
  5  4  1  0
  6  5  2  0
  6  1  1  0
  7  5  1  0
  9  8  1  0
 10  9  1  0
 11  9  1  0
 11 10  1  0
 11  1  1  0
  3 12  1  0
  4 13  1  0
  7 14  1  0
  7 15  1  0
  8 16  1  0
  8 17  1  0
  8 18  1  0
  9 19  1  1
 10 20  1  0
 10 21  1  0
 11 22  1  1
M  END
$$$$
=
     RDKit          3D

 50 52  0  0  0  0  0  0  0  0999 V2000
   26.2420   26.0360   13.8610 C   0  0  0  0  0  0  0  0  0  0  0  0
   26.0230   25.2890   12.6990 C   0  0  0  0  0  0  0  0  0  0  0  0
   26.9820   25.2590   11.6850 C   0  0  0  0  0  0  0  0  0  0  0  0
   28.2030   25.9000   11.8940 C   0  0  0  0  0  0  0  0  0  0  0  0
   28.4350   26.6430   13.0560 C   0  0  0  0  0  0  0  0  0  0  0  0
   27.4630   26.7300   14.0550 C   0  0  0  0  0  0  0  0  0  0  0  0
   27.6260   27.4780   15.2370 N   0  0  0  0  0  0  0  0  0  0  0  0
   27.5990   28.9350   15.0150 C   0  0  0  0  0  0  0  0  0  0  0  0
   28.9980   29.5080   14.7950 C   0  0  0  0  0  0  0  0  0  0  0  0
   29.9520   29.0980   15.9130 C   0  0  0  0  0  0  0  0  0  0  0  0
   29.9730   27.5820   16.1030 C   0  0  0  0  0  0  0  0  0  0  0  0
   28.5580   27.0210   16.2910 C   0  0  2  0  0  0  0  0  0  0  0  0
   28.5660   25.5040   16.4780 C   0  0  0  0  0  0  0  0  0  0  0  0
   24.0270   26.6170   14.8960 C   0  0  0  0  0  0  0  0  0  0  0  0
   23.4610   27.1440   13.9460 O   0  0  0  0  0  0  0  0  0  0  0  0
   25.3140   26.1300   14.9200 N   0  0  0  0  0  0  0  0  0  0  0  0
   21.3680   25.6810   17.4070 C   0  0  0  0  0  0  0  0  0  0  0  0
   21.8690   26.2680   18.5710 C   0  0  0  0  0  0  0  0  0  0  0  0
   23.0810   26.9600   18.5590 C   0  0  0  0  0  0  0  0  0  0  0  0
   23.7990   27.0810   17.3700 C   0  0  0  0  0  0  0  0  0  0  0  0
   23.2960   26.5140   16.1930 C   0  0  0  0  0  0  0  0  0  0  0  0
   22.0860   25.8020   16.2160 C   0  0  0  0  0  0  0  0  0  0  0  0
   19.7340   24.8120   18.8980 C   0  0  0  0  0  0  0  0  0  0  0  0
   20.1770   25.0260   17.5630 O   0  0  0  0  0  0  0  0  0  0  0  0
   26.8090   24.4190   10.5750 N   0  0  0  0  0  0  0  0  0  0  0  0
   25.0882   24.7209   12.5833 H   0  0  0  0  0  0  0  0  0  0  0  0
   28.9945   25.8200   11.1343 H   0  0  0  0  0  0  0  0  0  0  0  0
   29.3946   27.1651   13.1846 H   0  0  0  0  0  0  0  0  0  0  0  0
   26.9849   29.1474   14.1274 H   0  0  0  0  0  0  0  0  0  0  0  0
   27.1767   29.4072   15.9143 H   0  0  0  0  0  0  0  0  0  0  0  0
   29.3898   29.1366   13.8366 H   0  0  0  0  0  0  0  0  0  0  0  0
   28.9246   30.6055   14.7889 H   0  0  0  0  0  0  0  0  0  0  0  0
   30.9664   29.4408   15.6610 H   0  0  0  0  0  0  0  0  0  0  0  0
   29.6045   29.5586   16.8496 H   0  0  0  0  0  0  0  0  0  0  0  0
   30.4274   27.1166   15.2159 H   0  0  0  0  0  0  0  0  0  0  0  0
   30.5579   27.3548   17.0065 H   0  0  0  0  0  0  0  0  0  0  0  0
   28.1658   27.4395   17.2296 H   0  0  0  0  0  0  0  0  0  0  0  0
   28.5672   25.2670   17.5522 H   0  0  0  0  0  0  0  0  0  0  0  0
   27.6701   25.0719   16.0082 H   0  0  0  0  0  0  0  0  0  0  0  0
   29.4664   25.0814   16.0082 H   0  0  0  0  0  0  0  0  0  0  0  0
   25.6443   25.7882   15.8338 H   0  0  0  0  0  0  0  0  0  0  0  0
   21.3011   26.1839   19.5093 H   0  0  0  0  0  0  0  0  0  0  0  0
   23.4688   27.4088   19.4854 H   0  0  0  0  0  0  0  0  0  0  0  0
   24.7577   27.6203   17.3568 H   0  0  0  0  0  0  0  0  0  0  0  0
   21.7034   25.3390   15.2944 H   0  0  0  0  0  0  0  0  0  0  0  0
   20.4961   25.1801   19.6007 H   0  0  0  0  0  0  0  0  0  0  0  0
   18.7910   25.3539   19.0627 H   0  0  0  0  0  0  0  0  0  0  0  0
   19.5724   23.7365   19.0627 H   0  0  0  0  0  0  0  0  0  0  0  0
   27.5185   24.3992    9.8286 H   0  0  0  0  0  0  0  0  0  0  0  0
   25.9725   23.8220   10.5064 H   0  0  0  0  0  0  0  0  0  0  0  0
  2  1  2  0
  3  2  1  0
  4  3  2  0
  5  4  1  0
  6  1  1  0
  6  5  2  0
  7  6  1  0
  8  7  1  0
  9  8  1  0
 10  9  1  0
 11 10  1  0
 12 11  1  0
 12  7  1  0
 13 12  1  0
 15 14  2  0
 16 14  1  0
 16  1  1  0
 18 17  2  0
 19 18  1  0
 20 19  2  0
 21 14  1  0
 21 20  1  0
 22 17  1  0
 22 21  2  0
 24 23  1  0
 24 17  1  0
 25  3  1  0
  2 26  1  0
  4 27  1  0
  5 28  1  0
  8 29  1  0
  8 30  1  0
  9 31  1  0
  9 32  1  0
 10 33  1  0
 10 34  1  0
 11 35  1  0
 11 36  1  0
 12 37  1  1
 13 38  1  0
 13 39  1  0
 13 40  1  0
 16 41  1  0
 18 42  1  0
 19 43  1  0
 20 44  1  0
 22 45  1  0
 23 46  1  0
 23 47  1  0
 23 48  1  0
 25 49  1  0
 25 50  1  0
M  END
$$$$
=
     RDKit          3D

 52 52  0  0  0  0  0  0  0  0999 V2000
   18.3610   13.9900    3.8030 C   0  0  1  0  0  0  0  0  0  0  0  0
   18.8720   13.0430    2.8440 O   0  0  0  0  0  0  0  0  0  0  0  0
   19.4710   14.9400    4.3230 C   0  0  0  0  0  0  0  0  0  0  0  0
   19.0180   16.4040    4.2380 N   0  0  0  0  0  4  0  0  0  0  0  0
   18.7090   17.0030    5.6170 C   0  0  0  0  0  0  0  0  0  0  0  0
   16.7680   15.8490    6.7070 C   0  0  0  0  0  0  0  0  0  0  0  0
   17.2140   17.0650    5.9090 C   0  0  0  0  0  0  0  0  0  0  0  0
   19.9540   17.2650    3.3900 C   0  0  0  0  0  0  0  0  0  0  0  0
   20.7190   18.3080    4.2010 C   0  0  0  0  0  0  0  0  0  0  0  0
   22.2040   18.0120    4.3440 C   0  0  0  0  0  0  0  0  0  0  0  0
   17.1830   14.7360    3.1240 C   0  0  0  0  0  0  0  0  0  0  0  0
   15.8300   14.0710    3.5600 N   0  0  2  0  0  4  0  0  0  0  0  0
   15.4840   12.9120    2.6200 C   0  0  0  0  0  0  0  0  0  0  0  0
   14.0220   12.3940    2.6420 C   0  0  0  0  0  0  0  0  0  0  0  0
   13.3800   12.3520    3.9950 N   0  0  0  0  0  4  0  0  0  0  0  0
   12.7480   13.6220    4.4650 C   0  0  0  0  0  0  0  0  0  0  0  0
   13.7850   14.6530    4.8730 C   0  0  0  0  0  0  0  0  0  0  0  0
   14.7280   15.0970    3.7600 C   0  0  0  0  0  0  0  0  0  0  0  0
   17.9960   13.4771    4.7050 H   0  0  0  0  0  0  0  0  0  0  0  0
   19.2839   12.2797    3.3213 H   0  0  0  0  0  0  0  0  0  0  0  0
   19.6962   14.6923    5.3708 H   0  0  0  0  0  0  0  0  0  0  0  0
   20.3672   14.8110    3.6984 H   0  0  0  0  0  0  0  0  0  0  0  0
   18.1213   16.4044    3.7313 H   0  0  0  0  0  0  0  0  0  0  0  0
   19.1926   16.3832    6.3864 H   0  0  0  0  0  0  0  0  0  0  0  0
   19.0926   18.0339    5.6254 H   0  0  0  0  0  0  0  0  0  0  0  0
   16.8478   16.0667    7.7823 H   0  0  0  0  0  0  0  0  0  0  0  0
   15.7236   15.6098    6.4579 H   0  0  0  0  0  0  0  0  0  0  0  0
   17.4101   14.9913    6.4579 H   0  0  0  0  0  0  0  0  0  0  0  0
   16.6618   17.0945    4.9581 H   0  0  0  0  0  0  0  0  0  0  0  0
   17.0077   17.9694    6.5001 H   0  0  0  0  0  0  0  0  0  0  0  0
   20.6820   16.6053    2.8952 H   0  0  0  0  0  0  0  0  0  0  0  0
   19.3287   17.8099    2.6675 H   0  0  0  0  0  0  0  0  0  0  0  0
   20.6068   19.2830    3.7043 H   0  0  0  0  0  0  0  0  0  0  0  0
   20.2931   18.2982    5.2151 H   0  0  0  0  0  0  0  0  0  0  0  0
   22.4664   17.9597    5.4110 H   0  0  0  0  0  0  0  0  0  0  0  0
   22.4342   17.0503    3.8622 H   0  0  0  0  0  0  0  0  0  0  0  0
   22.7854   18.8119    3.8622 H   0  0  0  0  0  0  0  0  0  0  0  0
   17.1899   15.7919    3.4322 H   0  0  0  0  0  0  0  0  0  0  0  0
   17.2887   14.6754    2.0308 H   0  0  0  0  0  0  0  0  0  0  0  0
   15.9397   13.6500    4.4936 H   0  0  0  0  0  0  0  0  0  0  0  0
   15.7029   13.2416    1.5936 H   0  0  0  0  0  0  0  0  0  0  0  0
   16.0900   12.0664    2.9774 H   0  0  0  0  0  0  0  0  0  0  0  0
   13.4183   13.0516    1.9993 H   0  0  0  0  0  0  0  0  0  0  0  0
   14.0621   11.3523    2.2909 H   0  0  0  0  0  0  0  0  0  0  0  0
   12.6493   11.6264    3.9737 H   0  0  0  0  0  0  0  0  0  0  0  0
   14.1456   12.1633    4.6577 H   0  0  0  0  0  0  0  0  0  0  0  0
   12.1352   14.0368    3.6511 H   0  0  0  0  0  0  0  0  0  0  0  0
   12.1321   13.3905    5.3465 H   0  0  0  0  0  0  0  0  0  0  0  0
   13.2541   15.5418    5.2447 H   0  0  0  0  0  0  0  0  0  0  0  0
   14.4152   14.1693    5.6339 H   0  0  0  0  0  0  0  0  0  0  0  0
   14.1593   15.2053    2.8246 H   0  0  0  0  0  0  0  0  0  0  0  0
   15.1822   16.0591    4.0394 H   0  0  0  0  0  0  0  0  0  0  0  0
  2  1  1  0
  3  1  1  0
  4  3  1  0
  5  4  1  0
  7  6  1  0
  7  5  1  0
  8  4  1  0
  9  8  1  0
 10  9  1  0
 11  1  1  0
 12 11  1  0
 13 12  1  0
 14 13  1  0
 15 14  1  0
 16 15  1  0
 17 16  1  0
 18 17  1  0
 18 12  1  0
  1 19  1  1
  2 20  1  0
  3 21  1  0
  3 22  1  0
  4 23  1  0
  5 24  1  0
  5 25  1  0
  6 26  1  0
  6 27  1  0
  6 28  1  0
  7 29  1  0
  7 30  1  0
  8 31  1  0
  8 32  1  0
  9 33  1  0
  9 34  1  0
 10 35  1  0
 10 36  1  0
 10 37  1  0
 11 38  1  0
 11 39  1  0
 12 40  1  1
 13 41  1  0
 13 42  1  0
 14 43  1  0
 14 44  1  0
 15 45  1  0
 15 46  1  0
 16 47  1  0
 16 48  1  0
 17 49  1  0
 17 50  1  0
 18 51  1  0
 18 52  1  0
M  CHG  3   4   1  12   1  15   1
M  END
$$$$
=
     RDKit          3D

 46 46  0  0  0  0  0  0  0  0999 V2000
   18.4260   17.1060    4.5080 C   0  0  0  0  0  0  0  0  0  0  0  0
   17.6080   17.2970    5.6340 C   0  0  0  0  0  0  0  0  0  0  0  0
   16.5070   16.4630    5.8730 C   0  0  0  0  0  0  0  0  0  0  0  0
   16.2030   15.4320    4.9890 C   0  0  0  0  0  0  0  0  0  0  0  0
   17.0030   15.2440    3.8630 C   0  0  0  0  0  0  0  0  0  0  0  0
   18.1020   16.0710    3.6200 C   0  0  0  0  0  0  0  0  0  0  0  0
   19.5920   18.0220    4.1900 C   0  0  2  0  0  0  0  0  0  0  0  0
   20.2060   17.7850    2.8090 C   0  0  0  0  0  0  0  0  0  0  0  0
   20.6630   17.8630    5.2380 N   0  0  0  0  0  4  0  0  0  0  0  0
   21.8670   17.0630    4.8610 C   0  0  0  0  0  0  0  0  0  0  0  0
   21.7130   15.6120    5.2970 C   0  0  0  0  0  0  0  0  0  0  0  0
   19.8260   14.4980    6.5420 C   0  0  0  0  0  0  0  0  0  0  0  0
   20.9520   15.5150    6.6190 C   0  0  0  0  0  0  0  0  0  0  0  0
   15.1630   14.5550    5.0980 O   0  0  0  0  0  0  0  0  0  0  0  0
   14.2500   14.4700    4.0010 C   0  0  0  0  0  0  0  0  0  0  0  0
   13.9170   12.9920    3.7460 C   0  0  0  0  0  0  0  0  0  0  0  0
   15.0490   12.3150    2.9770 C   0  0  0  0  0  0  0  0  0  0  0  0
   12.5960   12.8420    2.9890 C   0  0  0  0  0  0  0  0  0  0  0  0
   17.8345   18.1118    6.3374 H   0  0  0  0  0  0  0  0  0  0  0  0
   15.8807   16.6241    6.7629 H   0  0  0  0  0  0  0  0  0  0  0  0
   16.7658   14.4344    3.1572 H   0  0  0  0  0  0  0  0  0  0  0  0
   18.7188   15.9086    2.7238 H   0  0  0  0  0  0  0  0  0  0  0  0
   19.1861   19.0444    4.1871 H   0  0  0  0  0  0  0  0  0  0  0  0
   21.2266   17.3911    2.9242 H   0  0  0  0  0  0  0  0  0  0  0  0
   19.5930   17.0589    2.2549 H   0  0  0  0  0  0  0  0  0  0  0  0
   20.2399   18.7347    2.2549 H   0  0  0  0  0  0  0  0  0  0  0  0
   20.9855   18.8059    5.4983 H   0  0  0  0  0  0  0  0  0  0  0  0
   20.2161   17.3316    5.9988 H   0  0  0  0  0  0  0  0  0  0  0  0
   21.9963   17.0993    3.7692 H   0  0  0  0  0  0  0  0  0  0  0  0
   22.7457   17.4906    5.3661 H   0  0  0  0  0  0  0  0  0  0  0  0
   21.1601   15.0604    4.5224 H   0  0  0  0  0  0  0  0  0  0  0  0
   22.7149   15.1799    5.4369 H   0  0  0  0  0  0  0  0  0  0  0  0
   19.5152   14.2173    7.5592 H   0  0  0  0  0  0  0  0  0  0  0  0
   18.9717   14.9367    6.0055 H   0  0  0  0  0  0  0  0  0  0  0  0
   20.1757   13.6036    6.0055 H   0  0  0  0  0  0  0  0  0  0  0  0
   21.6517   15.2137    7.4125 H   0  0  0  0  0  0  0  0  0  0  0  0
   20.5124   16.4996    6.8363 H   0  0  0  0  0  0  0  0  0  0  0  0
   13.3287   15.0198    4.2436 H   0  0  0  0  0  0  0  0  0  0  0  0
   14.7050   14.9107    3.1017 H   0  0  0  0  0  0  0  0  0  0  0  0
   13.8059   12.4985    4.7228 H   0  0  0  0  0  0  0  0  0  0  0  0
   15.7691   11.8843    3.6883 H   0  0  0  0  0  0  0  0  0  0  0  0
   14.6357   11.5157    2.3444 H   0  0  0  0  0  0  0  0  0  0  0  0
   15.5577   13.0573    2.3444 H   0  0  0  0  0  0  0  0  0  0  0  0
   11.7695   12.7482    3.7088 H   0  0  0  0  0  0  0  0  0  0  0  0
   12.4330   13.7274    2.3570 H   0  0  0  0  0  0  0  0  0  0  0  0
   12.6357   11.9426    2.3570 H   0  0  0  0  0  0  0  0  0  0  0  0
  2  1  2  0
  3  2  1  0
  4  3  2  0
  5  4  1  0
  6  5  2  0
  6  1  1  0
  7  1  1  0
  8  7  1  0
  9  7  1  0
 10  9  1  0
 11 10  1  0
 13 11  1  0
 13 12  1  0
 14  4  1  0
 15 14  1  0
 16 15  1  0
 17 16  1  0
 18 16  1  0
  2 19  1  0
  3 20  1  0
  5 21  1  0
  6 22  1  0
  7 23  1  6
  8 24  1  0
  8 25  1  0
  8 26  1  0
  9 27  1  0
  9 28  1  0
 10 29  1  0
 10 30  1  0
 11 31  1  0
 11 32  1  0
 12 33  1  0
 12 34  1  0
 12 35  1  0
 13 36  1  0
 13 37  1  0
 15 38  1  0
 15 39  1  0
 16 40  1  0
 17 41  1  0
 17 42  1  0
 17 43  1  0
 18 44  1  0
 18 45  1  0
 18 46  1  0
M  CHG  1   9   1
M  END
$$$$
=
     RDKit          3D

 42 43  0  0  0  0  0  0  0  0999 V2000
   19.5610   17.0010    5.0860 C   0  0  2  0  0  0  0  0  0  0  0  0
   21.0610   17.2160    5.3970 C   0  0  0  0  0  0  0  0  0  0  0  0
   21.5290   16.4180    6.6090 C   0  0  0  0  0  0  0  0  0  0  0  0
   21.2350   14.9330    6.4530 C   0  0  0  0  0  0  0  0  0  0  0  0
   19.7480   14.6980    6.2080 C   0  0  0  0  0  0  0  0  0  0  0  0
   19.2190   15.4820    4.9830 C   0  0  1  0  0  0  0  0  0  0  0  0
   17.7130   15.2680    4.8040 C   0  0  0  0  0  0  0  0  0  0  0  0
   16.7890   15.8540    5.6860 C   0  0  0  0  0  0  0  0  0  0  0  0
   15.4150   15.6800    5.5060 C   0  0  0  0  0  0  0  0  0  0  0  0
   14.9320   14.9240    4.4370 C   0  0  0  0  0  0  0  0  0  0  0  0
   15.8230   14.3390    3.5440 C   0  0  0  0  0  0  0  0  0  0  0  0
   17.2000   14.5150    3.7310 C   0  0  0  0  0  0  0  0  0  0  0  0
   15.4910   13.5920    2.4490 O   0  0  0  0  0  0  0  0  0  0  0  0
   14.7510   12.3980    2.6840 C   0  0  0  0  0  0  0  0  0  0  0  0
   19.9170   14.9940    3.8290 O   0  0  0  0  0  0  0  0  0  0  0  0
   19.1650   17.7220    3.7800 C   0  0  0  0  0  0  0  0  0  0  0  0
   20.1920   17.4280    1.5170 C   0  0  0  0  0  0  0  0  0  0  0  0
   20.3630   17.9480    2.9020 N   0  0  0  0  0  4  0  0  0  0  0  0
   18.9833   17.4306    5.9177 H   0  0  0  0  0  0  0  0  0  0  0  0
   21.6503   16.9052    4.5217 H   0  0  0  0  0  0  0  0  0  0  0  0
   21.2044   18.2825    5.6249 H   0  0  0  0  0  0  0  0  0  0  0  0
   22.6137   16.5559    6.7294 H   0  0  0  0  0  0  0  0  0  0  0  0
   20.9846   16.7844    7.4918 H   0  0  0  0  0  0  0  0  0  0  0  0
   21.8076   14.5397    5.6001 H   0  0  0  0  0  0  0  0  0  0  0  0
   21.5255   14.4168    7.3799 H   0  0  0  0  0  0  0  0  0  0  0  0
   19.5839   13.6238    6.0373 H   0  0  0  0  0  0  0  0  0  0  0  0
   19.2024   15.0541    7.0943 H   0  0  0  0  0  0  0  0  0  0  0  0
   17.1531   16.4582    6.5300 H   0  0  0  0  0  0  0  0  0  0  0  0
   14.7088   16.1420    6.2116 H   0  0  0  0  0  0  0  0  0  0  0  0
   13.8485   14.7911    4.3011 H   0  0  0  0  0  0  0  0  0  0  0  0
   17.8998   14.0520    3.0197 H   0  0  0  0  0  0  0  0  0  0  0  0
   14.6506   12.2361    3.7674 H   0  0  0  0  0  0  0  0  0  0  0  0
   13.7520   12.4910    2.2331 H   0  0  0  0  0  0  0  0  0  0  0  0
   15.2788   11.5447    2.2331 H   0  0  0  0  0  0  0  0  0  0  0  0
   20.6931   14.4514    4.1177 H   0  0  0  0  0  0  0  0  0  0  0  0
   18.4330   17.1059    3.2373 H   0  0  0  0  0  0  0  0  0  0  0  0
   18.7318   18.6996    4.0383 H   0  0  0  0  0  0  0  0  0  0  0  0
   19.8486   16.3837    1.5572 H   0  0  0  0  0  0  0  0  0  0  0  0
   19.4473   18.0387    0.9854 H   0  0  0  0  0  0  0  0  0  0  0  0
   21.1537   17.4775    0.9854 H   0  0  0  0  0  0  0  0  0  0  0  0
   21.1735   17.4772    3.3291 H   0  0  0  0  0  0  0  0  0  0  0  0
   20.4965   18.9667    2.8285 H   0  0  0  0  0  0  0  0  0  0  0  0
  2  1  1  0
  3  2  1  0
  4  3  1  0
  5  4  1  0
  6  5  1  0
  6  1  1  0
  7  6  1  0
  8  7  2  0
  9  8  1  0
 10  9  2  0
 11 10  1  0
 12 11  2  0
 12  7  1  0
 13 11  1  0
 14 13  1  0
  6 15  1  6
 16  1  1  0
 18 17  1  0
 18 16  1  0
  1 19  1  1
  2 20  1  0
  2 21  1  0
  3 22  1  0
  3 23  1  0
  4 24  1  0
  4 25  1  0
  5 26  1  0
  5 27  1  0
  8 28  1  0
  9 29  1  0
 10 30  1  0
 12 31  1  0
 14 32  1  0
 14 33  1  0
 14 34  1  0
 15 35  1  0
 16 36  1  0
 16 37  1  0
 17 38  1  0
 17 39  1  0
 17 40  1  0
 18 41  1  0
 18 42  1  0
M  CHG  1  18   1
M  END
$$$$
=
     RDKit          3D

 18 18  0  0  0  0  0  0  0  0999 V2000
   20.1660   16.2160    4.9800 C   0  0  0  0  0  0  0  0  0  0  0  0
   19.0590   16.9860    5.2610 C   0  0  0  0  0  0  0  0  0  0  0  0
   17.8800   16.5120    4.7510 C   0  0  0  0  0  0  0  0  0  0  0  0
   17.7920   15.3830    4.0260 N   0  0  0  0  0  0  0  0  0  0  0  0
   18.9270   14.7190    3.7940 C   0  0  0  0  0  0  0  0  0  0  0  0
   20.1230   15.0750    4.2560 N   0  0  0  0  0  0  0  0  0  0  0  0
   18.8470   13.5590    3.0570 N   0  0  0  0  0  0  0  0  0  0  0  0
   21.4890   16.6620    5.5090 C   0  0  0  0  0  0  0  0  0  0  0  0
   21.8740   16.4220    6.6450 O   0  0  0  0  0  0  0  0  0  0  0  0
   23.0940   18.3110    5.0930 C   0  0  0  0  0  0  0  0  0  0  0  0
   22.1820   17.3490    4.5650 O   0  0  0  0  0  0  0  0  0  0  0  0
   19.1177   17.9125    5.8510 H   0  0  0  0  0  0  0  0  0  0  0  0
   16.9597   17.0828    4.9438 H   0  0  0  0  0  0  0  0  0  0  0  0
   19.6994   13.0169    2.8557 H   0  0  0  0  0  0  0  0  0  0  0  0
   17.9348   13.2332    2.7069 H   0  0  0  0  0  0  0  0  0  0  0  0
   23.0643   18.2797    6.1922 H   0  0  0  0  0  0  0  0  0  0  0  0
   24.1122   18.0795    4.7469 H   0  0  0  0  0  0  0  0  0  0  0  0
   22.8086   19.3154    4.7469 H   0  0  0  0  0  0  0  0  0  0  0  0
  2  1  2  0
  3  2  1  0
  4  3  2  0
  5  4  1  0
  6  5  2  0
  6  1  1  0
  7  5  1  0
  8  1  1  0
  9  8  2  0
 11  8  1  0
 11 10  1  0
  2 12  1  0
  3 13  1  0
  7 14  1  0
  7 15  1  0
 10 16  1  0
 10 17  1  0
 10 18  1  0
M  END
$$$$
=
     RDKit          3D

 31 31  0  0  0  0  0  0  0  0999 V2000
   17.7910   15.2760    3.6640 C   0  0  1  0  0  0  0  0  0  0  0  0
   16.4410   15.0280    4.3980 C   0  0  0  0  0  0  0  0  0  0  0  0
   15.9840   16.2170    5.2400 C   0  0  0  0  0  0  0  0  0  0  0  0
   17.1120   16.8040    6.0910 C   0  0  0  0  0  0  0  0  0  0  0  0
   18.4160   16.6330    5.5060 O   0  0  0  0  0  0  0  0  0  0  0  0
   18.3610   16.6550    4.0700 C   0  0  1  0  0  0  0  0  0  0  0  0
   19.7210   17.1250    3.4910 C   0  0  0  0  0  0  0  0  0  0  0  0
   20.3700   18.2170    4.3400 C   0  0  0  0  0  0  0  0  0  0  0  0
   19.7410   17.5000    2.0070 C   0  0  0  0  0  0  0  0  0  0  0  0
   18.7420   14.0970    3.9310 C   0  0  0  0  0  0  0  0  0  0  0  0
   18.5280   12.9960    2.9580 N   0  0  0  0  0  4  0  0  0  0  0  0
   17.6474   15.3170    2.5742 H   0  0  0  0  0  0  0  0  0  0  0  0
   15.6679   14.8159    3.6448 H   0  0  0  0  0  0  0  0  0  0  0  0
   16.5940   14.1822    5.0845 H   0  0  0  0  0  0  0  0  0  0  0  0
   15.6061   17.0007    4.5670 H   0  0  0  0  0  0  0  0  0  0  0  0
   15.2017   15.8587    5.9253 H   0  0  0  0  0  0  0  0  0  0  0  0
   16.9266   17.8804    6.2217 H   0  0  0  0  0  0  0  0  0  0  0  0
   17.1118   16.2635    7.0490 H   0  0  0  0  0  0  0  0  0  0  0  0
   17.6870   17.4000    3.6219 H   0  0  0  0  0  0  0  0  0  0  0  0
   20.3315   16.2117    3.5473 H   0  0  0  0  0  0  0  0  0  0  0  0
   20.2313   17.9837    5.4060 H   0  0  0  0  0  0  0  0  0  0  0  0
   21.4450   18.2679    4.1126 H   0  0  0  0  0  0  0  0  0  0  0  0
   19.9009   19.1856    4.1126 H   0  0  0  0  0  0  0  0  0  0  0  0
   19.7993   18.5938    1.9060 H   0  0  0  0  0  0  0  0  0  0  0  0
   20.6159   17.0400    1.5243 H   0  0  0  0  0  0  0  0  0  0  0  0
   18.8221   17.1357    1.5243 H   0  0  0  0  0  0  0  0  0  0  0  0
   19.7807   14.4497    3.8493 H   0  0  0  0  0  0  0  0  0  0  0  0
   18.5387   13.7106    4.9406 H   0  0  0  0  0  0  0  0  0  0  0  0
   18.3571   12.1168    3.4666 H   0  0  0  0  0  0  0  0  0  0  0  0
   17.7137   13.2142    2.3662 H   0  0  0  0  0  0  0  0  0  0  0  0
   19.3648   12.8933    2.3662 H   0  0  0  0  0  0  0  0  0  0  0  0
  2  1  1  0
  3  2  1  0
  4  3  1  0
  5  4  1  0
  6  1  1  0
  6  5  1  0
  7  6  1  0
  8  7  1  0
  9  7  1  0
 10  1  1  0
 11 10  1  0
  1 12  1  6
  2 13  1  0
  2 14  1  0
  3 15  1  0
  3 16  1  0
  4 17  1  0
  4 18  1  0
  6 19  1  1
  7 20  1  0
  8 21  1  0
  8 22  1  0
  8 23  1  0
  9 24  1  0
  9 25  1  0
  9 26  1  0
 10 27  1  0
 10 28  1  0
 11 29  1  0
 11 30  1  0
 11 31  1  0
M  CHG  1  11   1
M  END
$$$$
=
     RDKit          3D

 36 36  0  0  0  0  0  0  0  0999 V2000
   19.6220   15.7370    3.0790 N   0  0  0  0  0  4  0  0  0  0  0  0
   19.0560   15.3140    4.4150 C   0  0  0  0  0  0  0  0  0  0  0  0
   17.0940   16.9900    6.0130 C   0  0  0  0  0  0  0  0  0  0  0  0
   16.6600   15.8450    5.1360 C   0  0  0  0  0  0  0  0  0  0  0  0
   15.2900   15.5500    5.0590 C   0  0  0  0  0  0  0  0  0  0  0  0
   14.8190   14.5330    4.2280 C   0  0  0  0  0  0  0  0  0  0  0  0
   15.7040   13.7860    3.4520 C   0  0  0  0  0  0  0  0  0  0  0  0
   17.0710   14.0810    3.5100 C   0  0  0  0  0  0  0  0  0  0  0  0
   17.5670   15.0940    4.3570 C   0  0  0  0  0  0  0  0  0  0  0  0
   15.1810   12.7470    2.5000 C   0  0  0  0  0  0  0  0  0  0  0  0
   19.5420   17.2050    2.7910 C   0  0  0  0  0  0  0  0  0  0  0  0
   20.0040   18.0050    4.0110 C   0  0  0  0  0  0  0  0  0  0  0  0
   21.5260   18.1900    4.0810 C   0  0  0  0  0  0  0  0  0  0  0  0
   21.9550   18.8590    5.3350 N   0  0  0  0  0  4  0  0  0  0  0  0
   20.6136   15.4598    3.0504 H   0  0  0  0  0  0  0  0  0  0  0  0
   19.0453   15.2724    2.3631 H   0  0  0  0  0  0  0  0  0  0  0  0
   19.5410   14.3765    4.7246 H   0  0  0  0  0  0  0  0  0  0  0  0
   19.2506   16.1218    5.1358 H   0  0  0  0  0  0  0  0  0  0  0  0
   16.9856   16.7041    7.0696 H   0  0  0  0  0  0  0  0  0  0  0  0
   18.1465   17.2327    5.8049 H   0  0  0  0  0  0  0  0  0  0  0  0
   16.4668   17.8694    5.8049 H   0  0  0  0  0  0  0  0  0  0  0  0
   14.5765   16.1296    5.6632 H   0  0  0  0  0  0  0  0  0  0  0  0
   13.7409   14.3190    4.1848 H   0  0  0  0  0  0  0  0  0  0  0  0
   17.7725   13.5115    2.8826 H   0  0  0  0  0  0  0  0  0  0  0  0
   14.7581   11.9068    3.0703 H   0  0  0  0  0  0  0  0  0  0  0  0
   14.3988   13.1907    1.8665 H   0  0  0  0  0  0  0  0  0  0  0  0
   16.0033   12.3831    1.8665 H   0  0  0  0  0  0  0  0  0  0  0  0
   20.1882   17.4435    1.9333 H   0  0  0  0  0  0  0  0  0  0  0  0
   18.5000   17.4707    2.5592 H   0  0  0  0  0  0  0  0  0  0  0  0
   19.5338   18.9987    3.9742 H   0  0  0  0  0  0  0  0  0  0  0  0
   19.7058   17.4353    4.9035 H   0  0  0  0  0  0  0  0  0  0  0  0
   22.0055   17.2015    4.0255 H   0  0  0  0  0  0  0  0  0  0  0  0
   21.8264   18.8300    3.2383 H   0  0  0  0  0  0  0  0  0  0  0  0
   21.6114   18.3232    6.1448 H   0  0  0  0  0  0  0  0  0  0  0  0
   22.9835   18.9050    5.3651 H   0  0  0  0  0  0  0  0  0  0  0  0
   21.5677   19.8129    5.3651 H   0  0  0  0  0  0  0  0  0  0  0  0
  2  1  1  0
  4  3  1  0
  5  4  2  0
  6  5  1  0
  7  6  2  0
  8  7  1  0
  9  8  2  0
  9  4  1  0
  9  2  1  0
 10  7  1  0
 11  1  1  0
 12 11  1  0
 13 12  1  0
 14 13  1  0
  1 15  1  0
  1 16  1  0
  2 17  1  0
  2 18  1  0
  3 19  1  0
  3 20  1  0
  3 21  1  0
  5 22  1  0
  6 23  1  0
  8 24  1  0
 10 25  1  0
 10 26  1  0
 10 27  1  0
 11 28  1  0
 11 29  1  0
 12 30  1  0
 12 31  1  0
 13 32  1  0
 13 33  1  0
 14 34  1  0
 14 35  1  0
 14 36  1  0
M  CHG  2   1   1  14   1
M  END
$$$$
=
     RDKit          3D

 47 48  0  0  0  0  0  0  0  0999 V2000
   17.5120   14.6440    3.2460 O   0  0  0  0  0  0  0  0  0  0  0  0
   15.2390   14.5560    3.8730 C   0  0  0  0  0  0  0  0  0  0  0  0
   14.0170   13.8590    3.9330 C   0  0  0  0  0  0  0  0  0  0  0  0
   13.8760   12.6070    3.3370 C   0  0  0  0  0  0  0  0  0  0  0  0
   14.9520   12.0290    2.6730 C   0  0  0  0  0  0  0  0  0  0  0  0
   16.1770   12.6930    2.6180 C   0  0  0  0  0  0  0  0  0  0  0  0
   16.3350   13.9430    3.2280 C   0  0  0  0  0  0  0  0  0  0  0  0
   15.3730   15.9310    4.5260 C   0  0  1  0  0  0  0  0  0  0  0  0
   14.0860   16.7590    4.4240 C   0  0  0  0  0  0  0  0  0  0  0  0
   17.0070   16.6970    6.3410 C   0  0  0  0  0  0  0  0  0  0  0  0
   15.8560   15.7670    5.9810 C   0  0  0  0  0  0  0  0  0  0  0  0
   18.7050   13.9360    3.5700 C   0  0  0  0  0  0  0  0  0  0  0  0
   19.2060   14.4440    4.9270 C   0  0  0  0  0  0  0  0  0  0  0  0
   20.3970   15.4210    4.8430 C   0  0  2  0  0  0  0  0  0  0  0  0
   20.9340   15.7250    6.2520 C   0  0  0  0  0  0  0  0  0  0  0  0
   22.1070   16.7030    6.2050 C   0  0  0  0  0  0  0  0  0  0  0  0
   21.7480   17.9740    5.4530 C   0  0  0  0  0  0  0  0  0  0  0  0
   21.2400   17.6150    4.0980 N   0  0  0  0  0  4  0  0  0  0  0  0
   20.0450   16.7180    4.1100 C   0  0  0  0  0  0  0  0  0  0  0  0
   13.1614   14.3091    4.4578 H   0  0  0  0  0  0  0  0  0  0  0  0
   12.9139   12.0765    3.3920 H   0  0  0  0  0  0  0  0  0  0  0  0
   14.8370   11.0471    2.1906 H   0  0  0  0  0  0  0  0  0  0  0  0
   17.0253   12.2312    2.0915 H   0  0  0  0  0  0  0  0  0  0  0  0
   16.1293   16.5059    3.9715 H   0  0  0  0  0  0  0  0  0  0  0  0
   13.7203   16.9943    5.4344 H   0  0  0  0  0  0  0  0  0  0  0  0
   14.2933   17.6936    3.8822 H   0  0  0  0  0  0  0  0  0  0  0  0
   13.3214   16.1830    3.8822 H   0  0  0  0  0  0  0  0  0  0  0  0
   17.0934   16.7668    7.4354 H   0  0  0  0  0  0  0  0  0  0  0  0
   17.9439   16.2993    5.9238 H   0  0  0  0  0  0  0  0  0  0  0  0
   16.8150   17.6966    5.9238 H   0  0  0  0  0  0  0  0  0  0  0  0
   15.0126   15.9779    6.6549 H   0  0  0  0  0  0  0  0  0  0  0  0
   16.2239   14.7359    6.0884 H   0  0  0  0  0  0  0  0  0  0  0  0
   18.4943   12.8580    3.6300 H   0  0  0  0  0  0  0  0  0  0  0  0
   19.4686   14.1009    2.7955 H   0  0  0  0  0  0  0  0  0  0  0  0
   18.3740   14.9586    5.4299 H   0  0  0  0  0  0  0  0  0  0  0  0
   19.5624   13.5622    5.4796 H   0  0  0  0  0  0  0  0  0  0  0  0
   21.1818   14.9262    4.2520 H   0  0  0  0  0  0  0  0  0  0  0  0
   20.1261   16.1645    6.8553 H   0  0  0  0  0  0  0  0  0  0  0  0
   21.2873   14.7833    6.6974 H   0  0  0  0  0  0  0  0  0  0  0  0
   22.3934   16.9662    7.2339 H   0  0  0  0  0  0  0  0  0  0  0  0
   22.9397   16.2153    5.6771 H   0  0  0  0  0  0  0  0  0  0  0  0
   20.9692   18.5206    6.0050 H   0  0  0  0  0  0  0  0  0  0  0  0
   22.6398   18.6108    5.3566 H   0  0  0  0  0  0  0  0  0  0  0  0
   20.9865   18.4844    3.6072 H   0  0  0  0  0  0  0  0  0  0  0  0
   21.9948   17.0964    3.6266 H   0  0  0  0  0  0  0  0  0  0  0  0
   19.7476   16.4874    3.0764 H   0  0  0  0  0  0  0  0  0  0  0  0
   19.2118   17.2190    4.6245 H   0  0  0  0  0  0  0  0  0  0  0  0
  3  2  2  0
  4  3  1  0
  5  4  2  0
  6  5  1  0
  7  6  2  0
  7  2  1  0
  7  1  1  0
  8  2  1  0
  9  8  1  0
 11  8  1  0
 11 10  1  0
 12  1  1  0
 13 12  1  0
 14 13  1  0
 15 14  1  0
 16 15  1  0
 17 16  1  0
 18 17  1  0
 19 14  1  0
 19 18  1  0
  3 20  1  0
  4 21  1  0
  5 22  1  0
  6 23  1  0
  8 24  1  6
  9 25  1  0
  9 26  1  0
  9 27  1  0
 10 28  1  0
 10 29  1  0
 10 30  1  0
 11 31  1  0
 11 32  1  0
 12 33  1  0
 12 34  1  0
 13 35  1  0
 13 36  1  0
 14 37  1  6
 15 38  1  0
 15 39  1  0
 16 40  1  0
 16 41  1  0
 17 42  1  0
 17 43  1  0
 18 44  1  0
 18 45  1  0
 19 46  1  0
 19 47  1  0
M  CHG  1  18   1
M  END
$$$$
=
     RDKit          3D

 49 49  0  0  0  0  0  0  0  0999 V2000
   18.3120   15.9630    5.7720 C   0  0  1  0  0  0  0  0  0  0  0  0
   18.9770   14.6840    5.2640 C   0  0  0  0  0  0  0  0  0  0  0  0
   18.3700   17.0020    4.6460 N   0  0  0  0  0  4  0  0  0  0  0  0
   19.2150   16.6300    3.4600 C   0  0  0  0  0  0  0  0  0  0  0  0
   20.2410   17.7350    3.1740 C   0  0  0  0  0  0  0  0  0  0  0  0
   20.8440   18.2650    4.4830 C   0  0  0  0  0  0  0  0  0  0  0  0
   22.1180   17.5640    4.8930 N   0  0  0  0  0  4  0  0  0  0  0  0
   21.9820   16.6160    6.0580 C   0  0  0  0  0  0  0  0  0  0  0  0
   23.3260   18.4560    5.0300 C   0  0  0  0  0  0  0  0  0  0  0  0
   16.8270   15.7660    6.1390 C   0  0  0  0  0  0  0  0  0  0  0  0
   15.8460   16.2250    5.0470 C   0  0  0  0  0  0  0  0  0  0  0  0
   13.6270   13.0020    3.2210 C   0  0  0  0  0  0  0  0  0  0  0  0
   15.0030   13.1050    3.0260 C   0  0  0  0  0  0  0  0  0  0  0  0
   15.7200   14.1560    3.6100 C   0  0  0  0  0  0  0  0  0  0  0  0
   15.0700   15.1140    4.4010 C   0  0  0  0  0  0  0  0  0  0  0  0
   13.6850   15.0150    4.5790 C   0  0  0  0  0  0  0  0  0  0  0  0
   12.9760   13.9610    3.9990 C   0  0  0  0  0  0  0  0  0  0  0  0
   11.4550   12.3790    2.4810 C   0  0  0  0  0  0  0  0  0  0  0  0
   12.8130   12.0260    2.7230 O   0  0  0  0  0  0  0  0  0  0  0  0
   18.8484   16.2771    6.6795 H   0  0  0  0  0  0  0  0  0  0  0  0
   19.2955   14.0714    6.1203 H   0  0  0  0  0  0  0  0  0  0  0  0
   18.2602   14.1158    4.6531 H   0  0  0  0  0  0  0  0  0  0  0  0
   19.8539   14.9444    4.6531 H   0  0  0  0  0  0  0  0  0  0  0  0
   17.4086   17.1613    4.3123 H   0  0  0  0  0  0  0  0  0  0  0  0
   18.8130   17.8366    5.0561 H   0  0  0  0  0  0  0  0  0  0  0  0
   19.7437   15.6888    3.6712 H   0  0  0  0  0  0  0  0  0  0  0  0
   18.5657   16.5062    2.5808 H   0  0  0  0  0  0  0  0  0  0  0  0
   21.0456   17.3271    2.5445 H   0  0  0  0  0  0  0  0  0  0  0  0
   19.7351   18.5630    2.6559 H   0  0  0  0  0  0  0  0  0  0  0  0
   21.0622   19.3357    4.3563 H   0  0  0  0  0  0  0  0  0  0  0  0
   20.1050   18.0780    5.2760 H   0  0  0  0  0  0  0  0  0  0  0  0
   22.3017   16.9711    4.0710 H   0  0  0  0  0  0  0  0  0  0  0  0
   22.0627   17.1785    6.9998 H   0  0  0  0  0  0  0  0  0  0  0  0
   21.0030   16.1165    6.0120 H   0  0  0  0  0  0  0  0  0  0  0  0
   22.7811   15.8615    6.0120 H   0  0  0  0  0  0  0  0  0  0  0  0
   23.5439   18.6169    6.0961 H   0  0  0  0  0  0  0  0  0  0  0  0
   24.1912   17.9784    4.5469 H   0  0  0  0  0  0  0  0  0  0  0  0
   23.1241   19.4234    4.5469 H   0  0  0  0  0  0  0  0  0  0  0  0
   16.6568   14.6960    6.3292 H   0  0  0  0  0  0  0  0  0  0  0  0
   16.6326   16.3899    7.0238 H   0  0  0  0  0  0  0  0  0  0  0  0
   15.1298   16.9257    5.5009 H   0  0  0  0  0  0  0  0  0  0  0  0
   16.4535   16.6850    4.2537 H   0  0  0  0  0  0  0  0  0  0  0  0
   15.5272   12.3583    2.4114 H   0  0  0  0  0  0  0  0  0  0  0  0
   16.8052   14.2311    3.4465 H   0  0  0  0  0  0  0  0  0  0  0  0
   13.1537   15.7697    5.1775 H   0  0  0  0  0  0  0  0  0  0  0  0
   11.8901   13.8854    4.1573 H   0  0  0  0  0  0  0  0  0  0  0  0
   10.9347   12.5142    3.4407 H   0  0  0  0  0  0  0  0  0  0  0  0
   11.4165   13.3170    1.9077 H   0  0  0  0  0  0  0  0  0  0  0  0
   10.9646   11.5785    1.9077 H   0  0  0  0  0  0  0  0  0  0  0  0
  2  1  1  0
  3  1  1  0
  4  3  1  0
  5  4  1  0
  6  5  1  0
  7  6  1  0
  8  7  1  0
  9  7  1  0
 10  1  1  0
 11 10  1  0
 13 12  2  0
 14 13  1  0
 15 14  2  0
 15 11  1  0
 16 15  1  0
 17 16  2  0
 17 12  1  0
 19 18  1  0
 19 12  1  0
  1 20  1  1
  2 21  1  0
  2 22  1  0
  2 23  1  0
  3 24  1  0
  3 25  1  0
  4 26  1  0
  4 27  1  0
  5 28  1  0
  5 29  1  0
  6 30  1  0
  6 31  1  0
  7 32  1  0
  8 33  1  0
  8 34  1  0
  8 35  1  0
  9 36  1  0
  9 37  1  0
  9 38  1  0
 10 39  1  0
 10 40  1  0
 11 41  1  0
 11 42  1  0
 13 43  1  0
 14 44  1  0
 16 45  1  0
 17 46  1  0
 18 47  1  0
 18 48  1  0
 18 49  1  0
M  CHG  2   3   1   7   1
M  END
$$$$
=
     RDKit          3D

 38 39  0  0  0  0  0  0  0  0999 V2000
   16.5270   15.4700    4.5920 C   0  0  0  0  0  0  0  0  0  0  0  0
   17.6930   15.2600    3.8450 C   0  0  0  0  0  0  0  0  0  0  0  0
   18.8320   16.0360    4.0720 C   0  0  0  0  0  0  0  0  0  0  0  0
   18.8330   17.0310    5.0510 C   0  0  0  0  0  0  0  0  0  0  0  0
   17.6750   17.2560    5.7920 C   0  0  0  0  0  0  0  0  0  0  0  0
   16.5330   16.4790    5.5650 C   0  0  0  0  0  0  0  0  0  0  0  0
   15.2680   14.6430    4.3620 C   0  0  1  0  0  0  0  0  0  0  0  0
   14.0380   15.5500    4.2530 C   0  0  0  0  0  0  0  0  0  0  0  0
   14.7300   12.3810    3.2900 C   0  0  0  0  0  0  0  0  0  0  0  0
   15.4380   13.7210    3.1380 C   0  0  0  0  0  0  0  0  0  0  0  0
   20.0190   17.6990    5.1750 O   0  0  0  0  0  0  0  0  0  0  0  0
   21.1310   17.2640    4.3910 C   0  0  1  0  0  0  0  0  0  0  0  0
   21.8370   18.4540    3.7450 C   0  0  0  0  0  0  0  0  0  0  0  0
   22.5900   19.0890    4.8880 N   0  0  0  0  0  4  0  0  0  0  0  0
   22.7610   18.0490    5.9590 C   0  0  0  0  0  0  0  0  0  0  0  0
   22.2010   16.7710    5.3590 C   0  0  0  0  0  0  0  0  0  0  0  0
   17.7119   14.4770    3.0727 H   0  0  0  0  0  0  0  0  0  0  0  0
   19.7378   15.8612    3.4729 H   0  0  0  0  0  0  0  0  0  0  0  0
   17.6580   18.0460    6.5572 H   0  0  0  0  0  0  0  0  0  0  0  0
   15.6260   16.6631    6.1595 H   0  0  0  0  0  0  0  0  0  0  0  0
   15.1052   13.9894    5.2316 H   0  0  0  0  0  0  0  0  0  0  0  0
   13.6843   15.8108    5.2614 H   0  0  0  0  0  0  0  0  0  0  0  0
   14.3064   16.4680    3.7097 H   0  0  0  0  0  0  0  0  0  0  0  0
   13.2403   15.0223    3.7097 H   0  0  0  0  0  0  0  0  0  0  0  0
   14.6079   12.1499    4.3585 H   0  0  0  0  0  0  0  0  0  0  0  0
   13.7413   12.4322    2.8106 H   0  0  0  0  0  0  0  0  0  0  0  0
   15.3295   11.5931    2.8106 H   0  0  0  0  0  0  0  0  0  0  0  0
   16.5116   13.5336    2.9885 H   0  0  0  0  0  0  0  0  0  0  0  0
   14.9830   14.2341    2.2780 H   0  0  0  0  0  0  0  0  0  0  0  0
   20.7598   16.5319    3.6587 H   0  0  0  0  0  0  0  0  0  0  0  0
   22.5287   18.1193    2.9579 H   0  0  0  0  0  0  0  0  0  0  0  0
   21.1385   19.1496    3.2569 H   0  0  0  0  0  0  0  0  0  0  0  0
   23.5124   19.4125    4.5632 H   0  0  0  0  0  0  0  0  0  0  0  0
   22.0717   19.9005    5.2538 H   0  0  0  0  0  0  0  0  0  0  0  0
   23.8246   17.9243    6.2105 H   0  0  0  0  0  0  0  0  0  0  0  0
   22.2475   18.3275    6.8911 H   0  0  0  0  0  0  0  0  0  0  0  0
   21.7603   16.1321    6.1385 H   0  0  0  0  0  0  0  0  0  0  0  0
   22.9708   16.1583    4.8671 H   0  0  0  0  0  0  0  0  0  0  0  0
  2  1  2  0
  3  2  1  0
  4  3  2  0
  5  4  1  0
  6  1  1  0
  6  5  2  0
  7  1  1  0
  8  7  1  0
 10  9  1  0
 10  7  1  0
 11  4  1  0
 12 11  1  0
 13 12  1  0
 14 13  1  0
 15 14  1  0
 16 12  1  0
 16 15  1  0
  2 17  1  0
  3 18  1  0
  5 19  1  0
  6 20  1  0
  7 21  1  1
  8 22  1  0
  8 23  1  0
  8 24  1  0
  9 25  1  0
  9 26  1  0
  9 27  1  0
 10 28  1  0
 10 29  1  0
 12 30  1  6
 13 31  1  0
 13 32  1  0
 14 33  1  0
 14 34  1  0
 15 35  1  0
 15 36  1  0
 16 37  1  0
 16 38  1  0
M  CHG  1  14   1
M  END
$$$$
=
     RDKit          3D

 51 52  0  0  0  0  0  0  0  0999 V2000
   16.9060   16.0110    5.7140 C   0  0  0  0  0  0  0  0  0  0  0  0
   17.6120   15.5230    4.5330 N   0  0  0  0  0  0  0  0  0  0  0  0
   18.9130   15.0440    4.5430 C   0  0  0  0  0  0  0  0  0  0  0  0
   19.4990   14.6860    3.5200 O   0  0  0  0  0  0  0  0  0  0  0  0
   19.6340   15.0210    5.8820 C   0  0  0  0  0  0  0  0  0  0  0  0
   20.6270   16.1820    5.9940 C   0  0  2  0  0  0  0  0  0  0  0  0
   20.0440   17.3600    5.4080 O   0  0  0  0  0  0  0  0  0  0  0  0
   20.7880   18.5450    5.7390 C   0  0  0  0  0  0  0  0  0  0  0  0
   22.3070   18.3100    5.7390 C   0  0  0  0  0  0  0  0  0  0  0  0
   22.6250   17.1550    4.8320 N   0  0  0  0  0  4  0  0  0  0  0  0
   21.9380   15.8730    5.2450 C   0  0  0  0  0  0  0  0  0  0  0  0
   16.8260   15.3970    3.3010 C   0  0  0  0  0  0  0  0  0  0  0  0
   15.8200   14.3010    3.4430 C   0  0  0  0  0  0  0  0  0  0  0  0
   16.0360   12.9090    3.2410 C   0  0  0  0  0  0  0  0  0  0  0  0
   17.2910   12.2110    2.8670 C   0  0  0  0  0  0  0  0  0  0  0  0
   14.9180   12.2030    3.4190 N   0  0  0  0  0  0  0  0  0  0  0  0
   13.9890   13.1120    3.7640 N   0  0  0  0  0  0  0  0  0  0  0  0
   14.4870   14.3930    3.8190 C   0  0  0  0  0  0  0  0  0  0  0  0
   13.6740   15.5700    4.2230 C   0  0  0  0  0  0  0  0  0  0  0  0
   12.6280   12.6600    4.0490 C   0  0  0  0  0  0  0  0  0  0  0  0
   11.9970   13.4350    5.2090 C   0  0  0  0  0  0  0  0  0  0  0  0
   11.7560   12.7290    2.7960 C   0  0  0  0  0  0  0  0  0  0  0  0
   17.4188   15.6565    6.6203 H   0  0  0  0  0  0  0  0  0  0  0  0
   16.8943   17.1109    5.7058 H   0  0  0  0  0  0  0  0  0  0  0  0
   15.8729   15.6333    5.7058 H   0  0  0  0  0  0  0  0  0  0  0  0
   18.8927   15.1031    6.6906 H   0  0  0  0  0  0  0  0  0  0  0  0
   20.1911   14.0759    5.9625 H   0  0  0  0  0  0  0  0  0  0  0  0
   20.8506   16.3363    7.0599 H   0  0  0  0  0  0  0  0  0  0  0  0
   20.5526   19.3261    5.0011 H   0  0  0  0  0  0  0  0  0  0  0  0
   20.4981   18.8464    6.7564 H   0  0  0  0  0  0  0  0  0  0  0  0
   22.8197   19.2139    5.3782 H   0  0  0  0  0  0  0  0  0  0  0  0
   22.6474   18.0842    6.7603 H   0  0  0  0  0  0  0  0  0  0  0  0
   22.3244   17.3954    3.8766 H   0  0  0  0  0  0  0  0  0  0  0  0
   23.6405   16.9915    4.8858 H   0  0  0  0  0  0  0  0  0  0  0  0
   22.6061   15.3004    5.9052 H   0  0  0  0  0  0  0  0  0  0  0  0
   21.7040   15.2877    4.3435 H   0  0  0  0  0  0  0  0  0  0  0  0
   16.3051   16.3455    3.1032 H   0  0  0  0  0  0  0  0  0  0  0  0
   17.5015   15.1595    2.4659 H   0  0  0  0  0  0  0  0  0  0  0  0
   17.8295   11.9115    3.7782 H   0  0  0  0  0  0  0  0  0  0  0  0
   17.0503   11.3171    2.2728 H   0  0  0  0  0  0  0  0  0  0  0  0
   17.9234   12.8870    2.2728 H   0  0  0  0  0  0  0  0  0  0  0  0
   13.6337   15.6284    5.3207 H   0  0  0  0  0  0  0  0  0  0  0  0
   14.1323   16.4867    3.8236 H   0  0  0  0  0  0  0  0  0  0  0  0
   12.6544   15.4658    3.8236 H   0  0  0  0  0  0  0  0  0  0  0  0
   12.6915   11.6079    4.3636 H   0  0  0  0  0  0  0  0  0  0  0  0
   12.3420   13.0113    6.1637 H   0  0  0  0  0  0  0  0  0  0  0  0
   12.2943   14.4923    5.1483 H   0  0  0  0  0  0  0  0  0  0  0  0
   10.9014   13.3582    5.1483 H   0  0  0  0  0  0  0  0  0  0  0  0
   10.6990   12.8126    3.0890 H   0  0  0  0  0  0  0  0  0  0  0  0
   12.0415   13.6074    2.1985 H   0  0  0  0  0  0  0  0  0  0  0  0
   11.8998   11.8167    2.1985 H   0  0  0  0  0  0  0  0  0  0  0  0
  2  1  1  0
  3  2  1  0
  4  3  2  0
  5  3  1  0
  6  5  1  0
  7  6  1  0
  8  7  1  0
  9  8  1  0
 10  9  1  0
 11  6  1  0
 11 10  1  0
 12  2  1  0
 13 12  1  0
 14 13  1  0
 15 14  1  0
 16 14  2  0
 17 16  1  0
 18 17  1  0
 18 13  2  0
 19 18  1  0
 20 17  1  0
 21 20  1  0
 22 20  1  0
  1 23  1  0
  1 24  1  0
  1 25  1  0
  5 26  1  0
  5 27  1  0
  6 28  1  1
  8 29  1  0
  8 30  1  0
  9 31  1  0
  9 32  1  0
 10 33  1  0
 10 34  1  0
 11 35  1  0
 11 36  1  0
 12 37  1  0
 12 38  1  0
 15 39  1  0
 15 40  1  0
 15 41  1  0
 19 42  1  0
 19 43  1  0
 19 44  1  0
 20 45  1  0
 21 46  1  0
 21 47  1  0
 21 48  1  0
 22 49  1  0
 22 50  1  0
 22 51  1  0
M  CHG  1  10   1
M  END
$$$$
=
     RDKit          3D

 28 28  0  0  0  0  0  0  0  0999 V2000
   15.6910   16.1430    5.0670 C   0  0  0  0  0  0  0  0  0  0  0  0
   13.7010   14.7960    4.2760 C   0  0  0  0  0  0  0  0  0  0  0  0
   15.2100   14.8040    4.4880 C   0  0  1  0  0  0  0  0  0  0  0  0
   15.8450   14.5560    3.1730 N   0  0  0  0  0  4  0  0  0  0  0  0
   16.7400   16.0470    6.1900 C   0  0  0  0  0  0  0  0  0  0  0  0
   18.1720   16.3940    5.7650 C   0  0  1  0  0  0  0  0  0  0  0  0
   19.1610   15.2690    6.0430 C   0  0  0  0  0  0  0  0  0  0  0  0
   19.2160   14.5320    4.7290 C   0  0  0  0  0  0  0  0  0  0  0  0
   19.0890   15.6650    3.7400 C   0  0  0  0  0  0  0  0  0  0  0  0
   18.1860   16.6220    4.3350 O   0  0  0  0  0  0  0  0  0  0  0  0
   16.1285   16.7288    4.2452 H   0  0  0  0  0  0  0  0  0  0  0  0
   14.8047   16.6076    5.5238 H   0  0  0  0  0  0  0  0  0  0  0  0
   13.1936   14.7933    5.2520 H   0  0  0  0  0  0  0  0  0  0  0  0
   13.4053   15.6926    3.7115 H   0  0  0  0  0  0  0  0  0  0  0  0
   13.4148   13.8963    3.7115 H   0  0  0  0  0  0  0  0  0  0  0  0
   15.4871   14.0244    5.2129 H   0  0  0  0  0  0  0  0  0  0  0  0
   16.7952   14.1849    3.3151 H   0  0  0  0  0  0  0  0  0  0  0  0
   15.2847   13.8720    2.6447 H   0  0  0  0  0  0  0  0  0  0  0  0
   15.8966   15.4387    2.6447 H   0  0  0  0  0  0  0  0  0  0  0  0
   16.4449   16.7377    6.9937 H   0  0  0  0  0  0  0  0  0  0  0  0
   16.7581   14.9938    6.5070 H   0  0  0  0  0  0  0  0  0  0  0  0
   18.4736   17.2794    6.3439 H   0  0  0  0  0  0  0  0  0  0  0  0
   20.1493   15.6694    6.3132 H   0  0  0  0  0  0  0  0  0  0  0  0
   18.8629   14.6289    6.8864 H   0  0  0  0  0  0  0  0  0  0  0  0
   20.1702   13.9984    4.6077 H   0  0  0  0  0  0  0  0  0  0  0  0
   18.4460   13.7541    4.6197 H   0  0  0  0  0  0  0  0  0  0  0  0
   20.0711   16.1274    3.5621 H   0  0  0  0  0  0  0  0  0  0  0  0
   18.7123   15.3089    2.7698 H   0  0  0  0  0  0  0  0  0  0  0  0
  3  2  1  0
  3  1  1  0
  4  3  1  0
  5  1  1  0
  6  5  1  0
  7  6  1  0
  8  7  1  0
  9  8  1  0
 10  9  1  0
 10  6  1  0
  1 11  1  0
  1 12  1  0
  2 13  1  0
  2 14  1  0
  2 15  1  0
  3 16  1  1
  4 17  1  0
  4 18  1  0
  4 19  1  0
  5 20  1  0
  5 21  1  0
  6 22  1  1
  7 23  1  0
  7 24  1  0
  8 25  1  0
  8 26  1  0
  9 27  1  0
  9 28  1  0
M  CHG  1   4   1
M  END
$$$$
=
     RDKit          3D

 32 33  0  0  0  0  0  0  0  0999 V2000
   19.7430   16.0630    5.4880 C   0  0  0  0  0  0  0  0  0  0  0  0
   19.7220   14.9830    4.5990 C   0  0  0  0  0  0  0  0  0  0  0  0
   18.5510   14.6460    3.9130 C   0  0  0  0  0  0  0  0  0  0  0  0
   17.3740   15.3890    4.0910 C   0  0  0  0  0  0  0  0  0  0  0  0
   17.4020   16.4810    4.9680 C   0  0  0  0  0  0  0  0  0  0  0  0
   18.5740   16.8150    5.6520 C   0  0  0  0  0  0  0  0  0  0  0  0
   16.1080   14.9630    3.3750 C   0  0  2  0  0  0  0  0  0  0  0  0
   14.8080   15.5120    4.0060 C   0  0  0  0  0  0  0  0  0  0  0  0
   14.0140   14.4400    4.7490 C   0  0  0  0  0  0  0  0  0  0  0  0
   13.6590   13.2470    3.8660 C   0  0  0  0  0  0  0  0  0  0  0  0
   14.7170   12.9850    2.8430 N   0  0  0  0  0  4  0  0  0  0  0  0
   16.0890   13.4320    3.2350 C   0  0  0  0  0  0  0  0  0  0  0  0
   21.0100   16.4390    6.2100 C   0  0  0  0  0  0  0  0  0  0  0  0
   21.3670   15.4070    7.1200 O   0  0  0  0  0  0  0  0  0  0  0  0
   20.6362   14.3928    4.4379 H   0  0  0  0  0  0  0  0  0  0  0  0
   18.5525   13.7876    3.2251 H   0  0  0  0  0  0  0  0  0  0  0  0
   16.4928   17.0813    5.1197 H   0  0  0  0  0  0  0  0  0  0  0  0
   18.5778   17.6817    6.3293 H   0  0  0  0  0  0  0  0  0  0  0  0
   16.1308   15.4188    2.3741 H   0  0  0  0  0  0  0  0  0  0  0  0
   15.0713   16.3100    4.7159 H   0  0  0  0  0  0  0  0  0  0  0  0
   14.1749   15.8868    3.1883 H   0  0  0  0  0  0  0  0  0  0  0  0
   14.6156   14.0822    5.5976 H   0  0  0  0  0  0  0  0  0  0  0  0
   13.0706   14.8979    5.0812 H   0  0  0  0  0  0  0  0  0  0  0  0
   13.5465   12.3549    4.4997 H   0  0  0  0  0  0  0  0  0  0  0  0
   12.7207   13.4760    3.3395 H   0  0  0  0  0  0  0  0  0  0  0  0
   14.7482   11.9708    2.6661 H   0  0  0  0  0  0  0  0  0  0  0  0
   14.4590   13.5336    2.0103 H   0  0  0  0  0  0  0  0  0  0  0  0
   16.3640   12.9724    4.1958 H   0  0  0  0  0  0  0  0  0  0  0  0
   16.8096   13.1252    2.4626 H   0  0  0  0  0  0  0  0  0  0  0  0
   21.8200   16.5782    5.4789 H   0  0  0  0  0  0  0  0  0  0  0  0
   20.8489   17.3748    6.7653 H   0  0  0  0  0  0  0  0  0  0  0  0
   21.2545   15.7321    8.0483 H   0  0  0  0  0  0  0  0  0  0  0  0
  2  1  2  0
  3  2  1  0
  4  3  2  0
  5  4  1  0
  6  1  1  0
  6  5  2  0
  7  4  1  0
  8  7  1  0
  9  8  1  0
 10  9  1  0
 11 10  1  0
 12 11  1  0
 12  7  1  0
 13  1  1  0
 14 13  1  0
  2 15  1  0
  3 16  1  0
  5 17  1  0
  6 18  1  0
  7 19  1  6
  8 20  1  0
  8 21  1  0
  9 22  1  0
  9 23  1  0
 10 24  1  0
 10 25  1  0
 11 26  1  0
 11 27  1  0
 12 28  1  0
 12 29  1  0
 13 30  1  0
 13 31  1  0
 14 32  1  0
M  CHG  1  11   1
M  END
$$$$
=
     RDKit          3D

 39 40  0  0  0  0  0  0  0  0999 V2000
   14.4260   14.5010    3.7690 C   0  0  2  0  0  0  0  0  0  0  0  0
   13.0990   14.9850    4.3650 C   0  0  0  0  0  0  0  0  0  0  0  0
   12.0810   14.0020    3.8000 N   0  0  1  0  0  4  0  0  0  0  0  0
   12.8320   12.7270    3.4370 C   0  0  0  0  0  0  0  0  0  0  0  0
   14.2950   12.9760    3.8720 C   0  0  1  0  0  0  0  0  0  0  0  0
   10.8840   13.7990    4.6960 C   0  0  0  0  0  0  0  0  0  0  0  0
   18.0820   15.4950    4.2020 C   0  0  0  0  0  0  0  0  0  0  0  0
   16.8550   15.0920    3.6490 C   0  0  0  0  0  0  0  0  0  0  0  0
   15.6830   15.0180    4.4160 C   0  0  0  0  0  0  0  0  0  0  0  0
   15.7620   15.3710    5.7650 C   0  0  0  0  0  0  0  0  0  0  0  0
   16.9830   15.7740    6.3250 C   0  0  0  0  0  0  0  0  0  0  0  0
   18.1550   15.8320    5.5590 C   0  0  0  0  0  0  0  0  0  0  0  0
   19.5070   16.6820    2.6890 C   0  0  0  0  0  0  0  0  0  0  0  0
   19.0930   15.4540    3.2790 O   0  0  0  0  0  0  0  0  0  0  0  0
   19.3750   16.1510    6.0790 O   0  0  0  0  0  0  0  0  0  0  0  0
   20.2150   15.1000    6.5420 C   0  0  0  0  0  0  0  0  0  0  0  0
   15.3200   12.2800    3.0310 N   0  0  0  0  0  4  0  0  0  0  0  0
   14.5597   14.8872    2.7477 H   0  0  0  0  0  0  0  0  0  0  0  0
   13.1213   14.9409    5.4639 H   0  0  0  0  0  0  0  0  0  0  0  0
   12.8713   16.0316    4.1146 H   0  0  0  0  0  0  0  0  0  0  0  0
   11.6492   14.3851    2.9470 H   0  0  0  0  0  0  0  0  0  0  0  0
   12.4112   11.8654    3.9761 H   0  0  0  0  0  0  0  0  0  0  0  0
   12.7569   12.4988    2.3635 H   0  0  0  0  0  0  0  0  0  0  0  0
   14.4892   12.5698    4.8756 H   0  0  0  0  0  0  0  0  0  0  0  0
   11.2003   13.8526    5.7482 H   0  0  0  0  0  0  0  0  0  0  0  0
   10.1394   14.5837    4.4965 H   0  0  0  0  0  0  0  0  0  0  0  0
   10.4397   12.8127    4.4965 H   0  0  0  0  0  0  0  0  0  0  0  0
   16.8121   14.8265    2.5824 H   0  0  0  0  0  0  0  0  0  0  0  0
   14.8597   15.3326    6.3930 H   0  0  0  0  0  0  0  0  0  0  0  0
   17.0215   16.0507    7.3889 H   0  0  0  0  0  0  0  0  0  0  0  0
   19.7509   17.4054    3.4809 H   0  0  0  0  0  0  0  0  0  0  0  0
   20.3960   16.5077    2.0651 H   0  0  0  0  0  0  0  0  0  0  0  0
   18.6939   17.0815    2.0651 H   0  0  0  0  0  0  0  0  0  0  0  0
   20.2208   15.0928    7.6420 H   0  0  0  0  0  0  0  0  0  0  0  0
   19.8352   14.1366    6.1710 H   0  0  0  0  0  0  0  0  0  0  0  0
   21.2384   15.2581    6.1710 H   0  0  0  0  0  0  0  0  0  0  0  0
   16.0062   11.8140    3.6417 H   0  0  0  0  0  0  0  0  0  0  0  0
   14.8570   11.5779    2.4364 H   0  0  0  0  0  0  0  0  0  0  0  0
   15.8018   12.9694    2.4364 H   0  0  0  0  0  0  0  0  0  0  0  0
  2  1  1  0
  3  2  1  0
  4  3  1  0
  5  4  1  0
  5  1  1  0
  6  3  1  0
  8  7  2  0
  9  1  1  0
  9  8  1  0
 10  9  2  0
 11 10  1  0
 12  7  1  0
 12 11  2  0
 14  7  1  0
 14 13  1  0
 15 12  1  0
 16 15  1  0
 17  5  1  0
  1 18  1  6
  2 19  1  0
  2 20  1  0
  3 21  1  6
  4 22  1  0
  4 23  1  0
  5 24  1  1
  6 25  1  0
  6 26  1  0
  6 27  1  0
  8 28  1  0
 10 29  1  0
 11 30  1  0
 13 31  1  0
 13 32  1  0
 13 33  1  0
 16 34  1  0
 16 35  1  0
 16 36  1  0
 17 37  1  0
 17 38  1  0
 17 39  1  0
M  CHG  2   3   1  17   1
M  END
$$$$
=
     RDKit          3D

 50 53  0  0  0  0  0  0  0  0999 V2000
   25.9680   25.4080   14.0470 C   0  0  1  0  0  0  0  0  0  0  0  0
   25.6350   25.0700   12.5870 C   0  0  2  0  0  0  0  0  0  0  0  0
   26.4750   26.2820   12.8860 C   0  0  2  0  0  0  0  0  0  0  0  0
   24.2330   25.1960   12.0380 C   0  0  0  0  0  0  0  0  0  0  0  0
   23.6260   26.4620   11.8330 C   0  0  0  0  0  0  0  0  0  0  0  0
   22.3280   26.5860   11.3240 C   0  0  0  0  0  0  0  0  0  0  0  0
   21.6500   25.4320   11.0120 C   0  0  0  0  0  0  0  0  0  0  0  0
   22.2210   24.1970   11.1830 C   0  0  0  0  0  0  0  0  0  0  0  0
   23.4990   24.0480   11.6800 C   0  0  0  0  0  0  0  0  0  0  0  0
   21.3920   23.1840   10.8140 O   0  0  0  0  0  0  0  0  0  0  0  0
   20.2330   23.9280   10.3750 C   0  0  0  0  0  0  0  0  0  0  0  0
   20.3890   25.3570   10.5130 O   0  0  0  0  0  0  0  0  0  0  0  0
   28.2540   26.1470   12.6270 S   0  0  0  0  0  6  0  0  0  0  0  0
   28.5350   24.7450   12.9000 O   0  0  0  0  0  0  0  0  0  0  0  0
   28.5410   26.6880   11.3160 O   0  0  0  0  0  0  0  0  0  0  0  0
   28.9730   27.1690   13.8630 C   0  0  0  0  0  0  0  0  0  0  0  0
   28.5730   28.5060   13.9550 C   0  0  0  0  0  0  0  0  0  0  0  0
   29.1350   29.3200   14.9370 C   0  0  0  0  0  0  0  0  0  0  0  0
   30.0920   28.8030   15.8110 C   0  0  0  0  0  0  0  0  0  0  0  0
   30.4970   27.4710   15.7040 C   0  0  0  0  0  0  0  0  0  0  0  0
   29.9410   26.6480   14.7260 C   0  0  0  0  0  0  0  0  0  0  0  0
   25.0680   26.1470   14.9960 C   0  0  0  0  0  0  0  0  0  0  0  0
   24.1240   25.5500   15.4950 O   0  0  0  0  0  0  0  0  0  0  0  0
   25.4430   27.4170   15.2540 O   0  0  0  0  0  0  0  0  0  0  0  0
   27.0110   27.2350   17.0460 C   0  0  0  0  0  0  0  0  0  0  0  0
   25.6380   27.7300   16.6410 C   0  0  0  0  0  0  0  0  0  0  0  0
   26.8310   24.3660   14.7560 C   0  0  0  0  0  0  0  0  0  0  0  0
   26.5670   22.9620   14.3550 N   0  0  0  0  0  4  0  0  0  0  0  0
   25.7578   24.1783   11.9547 H   0  0  0  0  0  0  0  0  0  0  0  0
   26.4028   27.3377   12.5857 H   0  0  0  0  0  0  0  0  0  0  0  0
   24.1917   27.3722   12.0812 H   0  0  0  0  0  0  0  0  0  0  0  0
   21.8662   27.5737   11.1786 H   0  0  0  0  0  0  0  0  0  0  0  0
   23.9391   23.0465   11.7953 H   0  0  0  0  0  0  0  0  0  0  0  0
   20.0500   23.6969    9.3152 H   0  0  0  0  0  0  0  0  0  0  0  0
   19.3900   23.6277   11.0147 H   0  0  0  0  0  0  0  0  0  0  0  0
   27.8228   28.9109   13.2598 H   0  0  0  0  0  0  0  0  0  0  0  0
   28.8236   30.3715   15.0231 H   0  0  0  0  0  0  0  0  0  0  0  0
   30.5293   29.4476   16.5877 H   0  0  0  0  0  0  0  0  0  0  0  0
   31.2558   27.0706   16.3924 H   0  0  0  0  0  0  0  0  0  0  0  0
   30.2608   25.5995   14.6344 H   0  0  0  0  0  0  0  0  0  0  0  0
   27.0825   27.2092   18.1434 H   0  0  0  0  0  0  0  0  0  0  0  0
   27.1692   26.2232   16.6444 H   0  0  0  0  0  0  0  0  0  0  0  0
   27.7784   27.9131   16.6444 H   0  0  0  0  0  0  0  0  0  0  0  0
   24.8678   27.2313   17.2477 H   0  0  0  0  0  0  0  0  0  0  0  0
   25.5614   28.8155   16.8014 H   0  0  0  0  0  0  0  0  0  0  0  0
   27.8858   24.5910   14.5399 H   0  0  0  0  0  0  0  0  0  0  0  0
   26.5828   24.4344   15.8255 H   0  0  0  0  0  0  0  0  0  0  0  0
   26.4574   22.3792   15.1972 H   0  0  0  0  0  0  0  0  0  0  0  0
   25.7037   22.9215   13.7947 H   0  0  0  0  0  0  0  0  0  0  0  0
   27.3567   22.6107   13.7947 H   0  0  0  0  0  0  0  0  0  0  0  0
  2  1  1  0
  3  2  1  0
  3  1  1  0
  4  2  1  0
  5  4  2  0
  6  5  1  0
  7  6  2  0
  8  7  1  0
  9  8  2  0
  9  4  1  0
 10  8  1  0
 11 10  1  0
 12 11  1  0
 12  7  1  0
 13  3  1  0
 14 13  2  0
 15 13  2  0
 16 13  1  0
 17 16  2  0
 18 17  1  0
 19 18  2  0
 20 19  1  0
 21 16  1  0
 21 20  2  0
  1 22  1  1
 23 22  2  0
 24 22  1  0
 26 25  1  0
 26 24  1  0
 27  1  1  0
 28 27  1  0
  2 29  1  6
  3 30  1  1
  5 31  1  0
  6 32  1  0
  9 33  1  0
 11 34  1  0
 11 35  1  0
 17 36  1  0
 18 37  1  0
 19 38  1  0
 20 39  1  0
 21 40  1  0
 25 41  1  0
 25 42  1  0
 25 43  1  0
 26 44  1  0
 26 45  1  0
 27 46  1  0
 27 47  1  0
 28 48  1  0
 28 49  1  0
 28 50  1  0
M  CHG  1  28   1
M  END
$$$$
=
     RDKit          3D

 37 38  0  0  0  0  0  0  0  0999 V2000
   19.7120   15.3710    4.9030 C   0  0  1  0  0  0  0  0  0  0  0  0
   18.8540   14.3550    4.1550 C   0  0  0  0  0  0  0  0  0  0  0  0
   17.4550   14.9300    4.1980 N   0  0  1  0  0  4  0  0  0  0  0  0
   17.5660   16.4330    4.4190 C   0  0  0  0  0  0  0  0  0  0  0  0
   19.0980   16.7270    4.5030 C   0  0  2  0  0  0  0  0  0  0  0  0
   19.6200   17.1850    3.1290 C   0  0  0  0  0  0  0  0  0  0  0  0
   19.7120   13.7310    6.5610 F   0  0  0  0  0  0  0  0  0  0  0  0
   19.6340   15.0650    6.3770 C   0  0  0  0  0  0  0  0  0  0  0  0
   18.5020   15.5260    6.9200 F   0  0  0  0  0  0  0  0  0  0  0  0
   20.6860   15.6180    7.0160 F   0  0  0  0  0  0  0  0  0  0  0  0
   19.4230   17.8500    5.4560 N   0  0  0  0  0  4  0  0  0  0  0  0
   16.5710   14.4970    3.0370 C   0  0  0  0  0  0  0  0  0  0  0  0
   15.2200   14.0380    3.5070 C   0  0  0  0  0  0  0  0  0  0  0  0
   14.3340   14.9400    4.1190 C   0  0  0  0  0  0  0  0  0  0  0  0
   13.0650   14.5200    4.5210 C   0  0  0  0  0  0  0  0  0  0  0  0
   12.6700   13.2000    4.3220 C   0  0  0  0  0  0  0  0  0  0  0  0
   13.5460   12.2930    3.7290 C   0  0  0  0  0  0  0  0  0  0  0  0
   14.8150   12.7060    3.3240 C   0  0  0  0  0  0  0  0  0  0  0  0
   20.7851   15.3595    4.6613 H   0  0  0  0  0  0  0  0  0  0  0  0
   19.1976   14.2472    3.1156 H   0  0  0  0  0  0  0  0  0  0  0  0
   18.9067   13.3529    4.6056 H   0  0  0  0  0  0  0  0  0  0  0  0
   16.9402   14.5318    4.9963 H   0  0  0  0  0  0  0  0  0  0  0  0
   17.1145   16.9801    3.5783 H   0  0  0  0  0  0  0  0  0  0  0  0
   17.0372   16.7532    5.3288 H   0  0  0  0  0  0  0  0  0  0  0  0
   20.4401   17.9045    3.2696 H   0  0  0  0  0  0  0  0  0  0  0  0
   19.9888   16.3137    2.5679 H   0  0  0  0  0  0  0  0  0  0  0  0
   18.8041   17.6640    2.5679 H   0  0  0  0  0  0  0  0  0  0  0  0
   19.3264   17.5162    6.4256 H   0  0  0  0  0  0  0  0  0  0  0  0
   20.3901   18.1665    5.2966 H   0  0  0  0  0  0  0  0  0  0  0  0
   18.7744   18.6341    5.2966 H   0  0  0  0  0  0  0  0  0  0  0  0
   16.4399   15.3479    2.3524 H   0  0  0  0  0  0  0  0  0  0  0  0
   17.0616   13.6536    2.5290 H   0  0  0  0  0  0  0  0  0  0  0  0
   14.6420   15.9833    4.2824 H   0  0  0  0  0  0  0  0  0  0  0  0
   12.3756   15.2335    4.9960 H   0  0  0  0  0  0  0  0  0  0  0  0
   11.6667   12.8731    4.6328 H   0  0  0  0  0  0  0  0  0  0  0  0
   13.2357   11.2483    3.5799 H   0  0  0  0  0  0  0  0  0  0  0  0
   15.5025   11.9843    2.8586 H   0  0  0  0  0  0  0  0  0  0  0  0
  2  1  1  0
  3  2  1  0
  4  3  1  0
  5  1  1  0
  5  4  1  0
  5  6  1  6
  8  1  1  0
  8  7  1  0
  9  8  1  0
 10  8  1  0
 11  5  1  0
 12  3  1  0
 13 12  1  0
 14 13  2  0
 15 14  1  0
 16 15  2  0
 17 16  1  0
 18 17  2  0
 18 13  1  0
  1 19  1  6
  2 20  1  0
  2 21  1  0
  3 22  1  1
  4 23  1  0
  4 24  1  0
  6 25  1  0
  6 26  1  0
  6 27  1  0
 11 28  1  0
 11 29  1  0
 11 30  1  0
 12 31  1  0
 12 32  1  0
 14 33  1  0
 15 34  1  0
 16 35  1  0
 17 36  1  0
 18 37  1  0
M  CHG  2   3   1  11   1
M  END
$$$$
=
     RDKit          3D

 42 44  0  0  0  0  0  0  0  0999 V2000
   18.1970   13.4700    3.7060 C   0  0  1  0  0  0  0  0  0  0  0  0
   19.8770   17.2600    4.9800 C   0  0  0  0  0  0  0  0  0  0  0  0
   19.8030   16.1850    5.8700 C   0  0  0  0  0  0  0  0  0  0  0  0
   19.2460   14.9690    5.4630 C   0  0  0  0  0  0  0  0  0  0  0  0
   18.7600   14.8060    4.1580 C   0  0  0  0  0  0  0  0  0  0  0  0
   18.8360   15.8920    3.2710 C   0  0  0  0  0  0  0  0  0  0  0  0
   19.3490   17.1270    3.6810 C   0  0  0  0  0  0  0  0  0  0  0  0
   19.5210   18.1540    2.7300 N   0  0  0  0  0  0  0  0  0  0  0  0
   21.8000   18.5510    5.5410 C   0  0  0  0  0  0  0  0  0  0  0  0
   20.4050   18.4950    5.2760 O   0  0  0  0  0  0  0  0  0  0  0  0
   16.6800   13.4440    3.6140 C   0  0  0  0  0  0  0  0  0  0  0  0
   15.8790   14.4220    4.2180 C   0  0  0  0  0  0  0  0  0  0  0  0
   14.4840   14.3700    4.1220 C   0  0  0  0  0  0  0  0  0  0  0  0
   13.8430   13.3380    3.4190 C   0  0  0  0  0  0  0  0  0  0  0  0
   14.6470   12.3600    2.8150 C   0  0  0  0  0  0  0  0  0  0  0  0
   16.0420   12.4110    2.9080 C   0  0  0  0  0  0  0  0  0  0  0  0
   12.3750   13.2830    3.3210 C   0  0  0  0  0  0  0  0  0  0  0  0
   11.7400   12.3490    2.4850 C   0  0  0  0  0  0  0  0  0  0  0  0
   10.3460   12.2960    2.3920 C   0  0  0  0  0  0  0  0  0  0  0  0
    9.5640   13.1770    3.1330 C   0  0  0  0  0  0  0  0  0  0  0  0
   10.1730   14.1110    3.9670 C   0  0  0  0  0  0  0  0  0  0  0  0
   11.5660   14.1630    4.0600 C   0  0  0  0  0  0  0  0  0  0  0  0
   18.8020   13.1020    2.4640 O   0  0  0  0  0  0  0  0  0  0  0  0
   18.4470   12.7288    4.4794 H   0  0  0  0  0  0  0  0  0  0  0  0
   20.1848   16.2962    6.8956 H   0  0  0  0  0  0  0  0  0  0  0  0
   19.1885   14.1316    6.1739 H   0  0  0  0  0  0  0  0  0  0  0  0
   18.4859   15.7693    2.2354 H   0  0  0  0  0  0  0  0  0  0  0  0
   19.8980   19.0674    3.0208 H   0  0  0  0  0  0  0  0  0  0  0  0
   19.2697   17.9907    1.7446 H   0  0  0  0  0  0  0  0  0  0  0  0
   21.9667   18.5577    6.6283 H   0  0  0  0  0  0  0  0  0  0  0  0
   22.2926   17.6719    5.0999 H   0  0  0  0  0  0  0  0  0  0  0  0
   22.2205   19.4668    5.0999 H   0  0  0  0  0  0  0  0  0  0  0  0
   16.3537   15.2427    4.7758 H   0  0  0  0  0  0  0  0  0  0  0  0
   13.8794   15.1513    4.6058 H   0  0  0  0  0  0  0  0  0  0  0  0
   14.1723   11.5385    2.2584 H   0  0  0  0  0  0  0  0  0  0  0  0
   16.6472   11.6317    2.4217 H   0  0  0  0  0  0  0  0  0  0  0  0
   12.3491   11.6487    1.8946 H   0  0  0  0  0  0  0  0  0  0  0  0
    9.8669   11.5573    1.7326 H   0  0  0  0  0  0  0  0  0  0  0  0
    8.4672   13.1356    3.0600 H   0  0  0  0  0  0  0  0  0  0  0  0
    9.5567   14.8086    4.5532 H   0  0  0  0  0  0  0  0  0  0  0  0
   12.0370   14.9045    4.7221 H   0  0  0  0  0  0  0  0  0  0  0  0
   19.6344   12.5957    2.6396 H   0  0  0  0  0  0  0  0  0  0  0  0
  3  2  2  0
  4  3  1  0
  5  1  1  0
  5  4  2  0
  6  5  1  0
  7  6  2  0
  7  2  1  0
  8  7  1  0
 10  2  1  0
 10  9  1  0
 11  1  1  0
 12 11  2  0
 13 12  1  0
 14 13  2  0
 15 14  1  0
 16 15  2  0
 16 11  1  0
 17 14  1  0
 18 17  2  0
 19 18  1  0
 20 19  2  0
 21 20  1  0
 22 21  2  0
 22 17  1  0
 23  1  1  0
  1 24  1  1
  3 25  1  0
  4 26  1  0
  6 27  1  0
  8 28  1  0
  8 29  1  0
  9 30  1  0
  9 31  1  0
  9 32  1  0
 12 33  1  0
 13 34  1  0
 15 35  1  0
 16 36  1  0
 18 37  1  0
 19 38  1  0
 20 39  1  0
 21 40  1  0
 22 41  1  0
 23 42  1  0
M  END
$$$$
=
     RDKit          3D

 46 48  0  0  0  0  0  0  0  0999 V2000
   16.5970   15.0930    3.3840 N   0  0  0  0  0  4  0  0  0  0  0  0
   16.1020   13.6870    3.3880 C   0  0  0  0  0  0  0  0  0  0  0  0
   11.7450   13.5010    3.6250 C   0  0  0  0  0  0  0  0  0  0  0  0
   12.4910   14.4710    4.3150 C   0  0  0  0  0  0  0  0  0  0  0  0
   13.8920   14.5260    4.2610 C   0  0  0  0  0  0  0  0  0  0  0  0
   14.6090   13.6040    3.4970 C   0  0  0  0  0  0  0  0  0  0  0  0
   13.8940   12.6270    2.7990 C   0  0  0  0  0  0  0  0  0  0  0  0
   12.4930   12.5870    2.8640 C   0  0  0  0  0  0  0  0  0  0  0  0
    9.6270   12.5290    2.8030 C   0  0  0  0  0  0  0  0  0  0  0  0
   10.3490   13.4730    3.6580 N   0  0  0  0  0  0  0  0  0  0  0  0
    9.6500   13.8580    4.8860 C   0  0  0  0  0  0  0  0  0  0  0  0
   17.5230   15.4620    4.5090 C   0  0  0  0  0  0  0  0  0  0  0  0
   18.8260   14.6590    4.4240 C   0  0  0  0  0  0  0  0  0  0  0  0
   19.9300   15.2860    5.2150 C   0  0  0  0  0  0  0  0  0  0  0  0
   20.4520   14.8190    6.4050 C   0  0  0  0  0  0  0  0  0  0  0  0
   21.4670   15.6560    6.7890 N   0  0  0  0  0  0  0  0  0  0  0  0
   21.6430   16.6450    5.8500 C   0  0  0  0  0  0  0  0  0  0  0  0
   20.6680   16.4640    4.8690 C   0  0  0  0  0  0  0  0  0  0  0  0
   20.6070   17.3880    3.8040 C   0  0  0  0  0  0  0  0  0  0  0  0
   21.5290   18.4390    3.7510 C   0  0  0  0  0  0  0  0  0  0  0  0
   22.4990   18.5830    4.7390 C   0  0  0  0  0  0  0  0  0  0  0  0
   22.5710   17.6910    5.8120 C   0  0  0  0  0  0  0  0  0  0  0  0
   17.0979   15.2495    2.4977 H   0  0  0  0  0  0  0  0  0  0  0  0
   15.7622   15.6845    3.5025 H   0  0  0  0  0  0  0  0  0  0  0  0
   16.4150   13.2002    2.4525 H   0  0  0  0  0  0  0  0  0  0  0  0
   16.5297   13.1847    4.2682 H   0  0  0  0  0  0  0  0  0  0  0  0
   11.9558   15.2166    4.9214 H   0  0  0  0  0  0  0  0  0  0  0  0
   14.4296   15.3021    4.8254 H   0  0  0  0  0  0  0  0  0  0  0  0
   14.4337   11.8836    2.1940 H   0  0  0  0  0  0  0  0  0  0  0  0
   11.9595   11.8098    2.2971 H   0  0  0  0  0  0  0  0  0  0  0  0
    9.0782   11.8115    3.4307 H   0  0  0  0  0  0  0  0  0  0  0  0
    8.9167   13.0788    2.1679 H   0  0  0  0  0  0  0  0  0  0  0  0
   10.3436   11.9875    2.1679 H   0  0  0  0  0  0  0  0  0  0  0  0
   10.2367   13.5349    5.7586 H   0  0  0  0  0  0  0  0  0  0  0  0
    9.5274   14.9509    4.9109 H   0  0  0  0  0  0  0  0  0  0  0  0
    8.6608   13.3775    4.9109 H   0  0  0  0  0  0  0  0  0  0  0  0
   17.7557   16.5354    4.4478 H   0  0  0  0  0  0  0  0  0  0  0  0
   17.0280   15.2326    5.4641 H   0  0  0  0  0  0  0  0  0  0  0  0
   18.6436   13.6460    4.8121 H   0  0  0  0  0  0  0  0  0  0  0  0
   19.1386   14.6341    3.3697 H   0  0  0  0  0  0  0  0  0  0  0  0
   20.1113   13.9273    6.9516 H   0  0  0  0  0  0  0  0  0  0  0  0
   22.0173   15.5585    7.6542 H   0  0  0  0  0  0  0  0  0  0  0  0
   19.8407   17.2827    3.0219 H   0  0  0  0  0  0  0  0  0  0  0  0
   21.4870   19.1588    2.9202 H   0  0  0  0  0  0  0  0  0  0  0  0
   23.2197   19.4115    4.6740 H   0  0  0  0  0  0  0  0  0  0  0  0
   23.3306   17.8072    6.5991 H   0  0  0  0  0  0  0  0  0  0  0  0
  2  1  1  0
  4  3  2  0
  5  4  1  0
  6  5  2  0
  6  2  1  0
  7  6  1  0
  8  7  2  0
  8  3  1  0
 10  9  1  0
 10  3  1  0
 11 10  1  0
 12  1  1  0
 13 12  1  0
 14 13  1  0
 15 14  2  0
 16 15  1  0
 17 16  1  0
 18 14  1  0
 18 17  2  0
 19 18  1  0
 20 19  2  0
 21 20  1  0
 22 17  1  0
 22 21  2  0
  1 23  1  0
  1 24  1  0
  2 25  1  0
  2 26  1  0
  4 27  1  0
  5 28  1  0
  7 29  1  0
  8 30  1  0
  9 31  1  0
  9 32  1  0
  9 33  1  0
 11 34  1  0
 11 35  1  0
 11 36  1  0
 12 37  1  0
 12 38  1  0
 13 39  1  0
 13 40  1  0
 15 41  1  0
 16 42  1  0
 19 43  1  0
 20 44  1  0
 21 45  1  0
 22 46  1  0
M  CHG  1   1   1
M  END
$$$$
=
     RDKit          3D

 28 28  0  0  0  0  0  0  0  0999 V2000
   16.7160   14.9590    4.1680 C   0  0  0  0  0  0  0  0  0  0  0  0
   17.9180   14.2920    3.8260 C   0  0  0  0  0  0  0  0  0  0  0  0
   17.7980   13.0780    3.1440 C   0  0  0  0  0  0  0  0  0  0  0  0
   16.6330   12.4840    2.7990 N   0  0  0  0  0  0  0  0  0  0  0  0
   15.4940   13.1390    3.1080 C   0  0  0  0  0  0  0  0  0  0  0  0
   15.4990   14.3700    3.7750 C   0  0  0  0  0  0  0  0  0  0  0  0
   14.2260   12.4600    2.6860 C   0  0  0  0  0  0  0  0  0  0  0  0
   14.3380   15.0420    4.0680 O   0  0  0  0  0  0  0  0  0  0  0  0
   16.6830   16.2790    4.8980 C   0  0  0  0  0  0  0  0  0  0  0  0
   17.0200   16.1930    6.3120 N   0  0  0  0  0  4  0  0  0  0  0  0
   19.3460   14.7530    4.0870 C   0  0  0  0  0  0  0  0  0  0  0  0
   19.7510   14.6490    5.4260 O   0  0  0  0  0  0  0  0  0  0  0  0
   20.7870   15.7870    5.9640 P   0  0  0  0  0  5  0  0  0  0  0  0
   21.9310   15.6980    4.9570 O   0  0  0  0  0  0  0  0  0  0  0  0
   21.0740   15.4340    7.3930 O   0  0  0  0  0  1  0  0  0  0  0  0
   20.0100   17.0620    5.6460 O   0  0  0  0  0  1  0  0  0  0  0  0
   18.7288   12.5626    2.8645 H   0  0  0  0  0  0  0  0  0  0  0  0
   13.6585   12.1561    3.5779 H   0  0  0  0  0  0  0  0  0  0  0  0
   13.6205   13.1546    2.0852 H   0  0  0  0  0  0  0  0  0  0  0  0
   14.4685   11.5711    2.0852 H   0  0  0  0  0  0  0  0  0  0  0  0
   14.3749   15.9110    4.5409 H   0  0  0  0  0  0  0  0  0  0  0  0
   17.4006   16.9578    4.4140 H   0  0  0  0  0  0  0  0  0  0  0  0
   15.6460   16.6418    4.8439 H   0  0  0  0  0  0  0  0  0  0  0  0
   16.1858   16.4059    6.8773 H   0  0  0  0  0  0  0  0  0  0  0  0
   17.3484   15.2413    6.5294 H   0  0  0  0  0  0  0  0  0  0  0  0
   17.7643   16.8710    6.5294 H   0  0  0  0  0  0  0  0  0  0  0  0
   20.0232   14.1403    3.4738 H   0  0  0  0  0  0  0  0  0  0  0  0
   19.3840   15.8216    3.8287 H   0  0  0  0  0  0  0  0  0  0  0  0
  2  1  2  0
  3  2  1  0
  4  3  2  0
  5  4  1  0
  6  5  2  0
  6  1  1  0
  7  5  1  0
  8  6  1  0
  9  1  1  0
 10  9  1  0
 11  2  1  0
 12 11  1  0
 13 12  1  0
 14 13  2  0
 15 13  1  0
 16 13  1  0
  3 17  1  0
  7 18  1  0
  7 19  1  0
  7 20  1  0
  8 21  1  0
  9 22  1  0
  9 23  1  0
 10 24  1  0
 10 25  1  0
 10 26  1  0
 11 27  1  0
 11 28  1  0
M  CHG  3  10   1  15  -1  16  -1
M  END
$$$$
=
     RDKit          3D

 28 28  0  0  0  0  0  0  0  0999 V2000
   20.3810   16.9230    5.5110 C   0  0  2  0  0  0  0  0  0  0  0  0
   21.6230   16.1590    5.9830 C   0  0  0  0  0  0  0  0  0  0  0  0
   21.0640   14.9230    6.6610 N   0  0  0  0  0  4  0  0  0  0  0  0
   19.6150   14.7750    6.2480 C   0  0  0  0  0  0  0  0  0  0  0  0
   19.4480   15.7740    5.0850 C   0  0  1  0  0  0  0  0  0  0  0  0
   18.0370   16.2360    4.7560 N   0  0  0  0  0  4  0  0  0  0  0  0
   17.2410   15.2050    3.9800 C   0  0  0  0  0  0  0  0  0  0  0  0
   17.2030   16.8300    5.8660 C   0  0  0  0  0  0  0  0  0  0  0  0
   22.2680   18.7320    4.5350 C   0  0  0  0  0  0  0  0  0  0  0  0
   20.6300   18.0630    4.1190 S   0  0  0  0  0  0  0  0  0  0  0  0
   20.0120   17.5892    6.3047 H   0  0  0  0  0  0  0  0  0  0  0  0
   22.2585   15.8818    5.1290 H   0  0  0  0  0  0  0  0  0  0  0  0
   22.2562   16.7578    6.6542 H   0  0  0  0  0  0  0  0  0  0  0  0
   21.5974   14.0923    6.3673 H   0  0  0  0  0  0  0  0  0  0  0  0
   21.1359   15.0139    7.6845 H   0  0  0  0  0  0  0  0  0  0  0  0
   19.4081   13.7480    5.9126 H   0  0  0  0  0  0  0  0  0  0  0  0
   18.9189   14.9732    7.0763 H   0  0  0  0  0  0  0  0  0  0  0  0
   19.7001   15.3000    4.1249 H   0  0  0  0  0  0  0  0  0  0  0  0
   18.2419   17.0457    4.1532 H   0  0  0  0  0  0  0  0  0  0  0  0
   16.7241   14.5355    4.6833 H   0  0  0  0  0  0  0  0  0  0  0  0
   16.4998   15.7146    3.3469 H   0  0  0  0  0  0  0  0  0  0  0  0
   17.9216   14.6169    3.3469 H   0  0  0  0  0  0  0  0  0  0  0  0
   17.6214   16.5320    6.8387 H   0  0  0  0  0  0  0  0  0  0  0  0
   17.2111   17.9269    5.7839 H   0  0  0  0  0  0  0  0  0  0  0  0
   16.1690   16.4638    5.7839 H   0  0  0  0  0  0  0  0  0  0  0  0
   22.3787   18.7772    5.6285 H   0  0  0  0  0  0  0  0  0  0  0  0
   23.0479   18.0804    4.1141 H   0  0  0  0  0  0  0  0  0  0  0  0
   22.3687   19.7433    4.1141 H   0  0  0  0  0  0  0  0  0  0  0  0
  2  1  1  0
  3  2  1  0
  4  3  1  0
  5  4  1  0
  5  1  1  0
  6  5  1  0
  7  6  1  0
  8  6  1  0
 10  1  1  0
 10  9  1  0
  1 11  1  1
  2 12  1  0
  2 13  1  0
  3 14  1  0
  3 15  1  0
  4 16  1  0
  4 17  1  0
  5 18  1  6
  6 19  1  0
  7 20  1  0
  7 21  1  0
  7 22  1  0
  8 23  1  0
  8 24  1  0
  8 25  1  0
  9 26  1  0
  9 27  1  0
  9 28  1  0
M  CHG  2   3   1   6   1
M  END
$$$$
=
     RDKit          3D

 27 28  0  0  0  0  0  0  0  0999 V2000
   15.9220   13.9940    3.3810 C   0  0  0  0  0  0  0  0  0  0  0  0
   14.9010   14.7210    4.0070 C   0  0  0  0  0  0  0  0  0  0  0  0
   15.2110   15.7580    4.8870 C   0  0  0  0  0  0  0  0  0  0  0  0
   16.5430   16.0830    5.1460 C   0  0  0  0  0  0  0  0  0  0  0  0
   17.5800   15.3760    4.5290 C   0  0  0  0  0  0  0  0  0  0  0  0
   17.2600   14.3320    3.6490 C   0  0  0  0  0  0  0  0  0  0  0  0
   18.9740   15.7190    4.8110 C   0  0  0  0  0  0  0  0  0  0  0  0
   19.8110   14.9370    6.0970 S   0  0  0  0  0  0  0  0  0  0  0  0
   21.2180   15.8300    5.7090 C   0  0  0  0  0  0  0  0  0  0  0  0
   21.1080   16.6700    4.7060 N   0  0  0  0  0  0  0  0  0  0  0  0
   19.8280   16.6120    4.1770 C   0  0  0  0  0  0  0  0  0  0  0  0
   19.5130   17.4960    3.0210 C   0  0  0  0  0  0  0  0  0  0  0  0
   15.5970   12.9120    2.3970 C   0  0  0  0  0  0  0  0  0  0  0  0
   14.4620   12.0920    2.8720 N   0  0  0  0  0  4  0  0  0  0  0  0
   13.8489   14.4726    3.8034 H   0  0  0  0  0  0  0  0  0  0  0  0
   14.4034   16.3209    5.3779 H   0  0  0  0  0  0  0  0  0  0  0  0
   16.7794   16.9020    5.8412 H   0  0  0  0  0  0  0  0  0  0  0  0
   18.0688   13.7686    3.1607 H   0  0  0  0  0  0  0  0  0  0  0  0
   22.1583   15.7076    6.2665 H   0  0  0  0  0  0  0  0  0  0  0  0
   19.1652   18.4721    3.3900 H   0  0  0  0  0  0  0  0  0  0  0  0
   20.4166   17.6359    2.4095 H   0  0  0  0  0  0  0  0  0  0  0  0
   18.7245   17.0330    2.4095 H   0  0  0  0  0  0  0  0  0  0  0  0
   15.3321   13.3697    1.4325 H   0  0  0  0  0  0  0  0  0  0  0  0
   16.4776   12.2625    2.2844 H   0  0  0  0  0  0  0  0  0  0  0  0
   14.4513   12.0843    3.9019 H   0  0  0  0  0  0  0  0  0  0  0  0
   13.5795   12.4919    2.5225 H   0  0  0  0  0  0  0  0  0  0  0  0
   14.5645   11.1286    2.5225 H   0  0  0  0  0  0  0  0  0  0  0  0
  2  1  2  0
  3  2  1  0
  4  3  2  0
  5  4  1  0
  6  1  1  0
  6  5  2  0
  7  5  1  0
  8  7  1  0
  9  8  1  0
 10  9  2  0
 11  7  2  0
 11 10  1  0
 12 11  1  0
 13  1  1  0
 14 13  1  0
  2 15  1  0
  3 16  1  0
  4 17  1  0
  6 18  1  0
  9 19  1  0
 12 20  1  0
 12 21  1  0
 12 22  1  0
 13 23  1  0
 13 24  1  0
 14 25  1  0
 14 26  1  0
 14 27  1  0
M  CHG  1  14   1
M  END
$$$$
=
     RDKit          3D

 88 94  0  0  0  0  0  0  0  0999 V2000
    6.6690   11.6000    1.5440 C   0  0  2  0  0  0  0  0  0  0  0  0
    7.2050   10.2220    1.2060 C   0  0  0  0  0  0  0  0  0  0  0  0
    5.9770    9.5560    0.6130 C   0  0  1  0  0  0  0  0  0  0  0  0
    5.2180   10.5730   -0.0610 O   0  0  0  0  0  0  0  0  0  0  0  0
    5.7330   11.8620    0.3510 C   0  0  2  0  0  0  0  0  0  0  0  0
    6.2090    8.4510   -0.2880 N   0  0  0  0  0  0  0  0  0  0  0  0
    5.9300    8.4670   -1.6310 C   0  0  0  0  0  0  0  0  0  0  0  0
    6.2320    7.3290   -2.2170 N   0  0  0  0  0  0  0  0  0  0  0  0
    6.7410    6.5420   -1.2040 C   0  0  0  0  0  0  0  0  0  0  0  0
    6.7440    7.2250    0.0030 C   0  0  0  0  0  0  0  0  0  0  0  0
    7.1770    6.7630    1.1880 N   0  0  0  0  0  0  0  0  0  0  0  0
    7.6470    5.5060    1.0760 C   0  0  0  0  0  0  0  0  0  0  0  0
    7.7130    4.7280   -0.0260 N   0  0  0  0  0  0  0  0  0  0  0  0
    7.2440    5.2300   -1.1900 C   0  0  0  0  0  0  0  0  0  0  0  0
    7.3030    4.4260   -2.3230 N   0  0  0  0  0  0  0  0  0  0  0  0
    7.7070   12.5660    1.6470 O   0  0  0  0  0  0  0  0  0  0  0  0
    7.9410   13.2000    2.9420 C   0  0  0  0  0  0  0  0  0  0  0  0
    6.2300   17.2460    2.6490 C   0  0  0  0  0  0  0  0  0  0  0  0
    6.8720   16.6720    1.5560 C   0  0  0  0  0  0  0  0  0  0  0  0
    7.4120   15.3830    1.6510 C   0  0  0  0  0  0  0  0  0  0  0  0
    7.3150   14.6290    2.8390 C   0  0  0  0  0  0  0  0  0  0  0  0
    6.6750   15.2320    3.9350 C   0  0  0  0  0  0  0  0  0  0  0  0
    6.1370   16.5210    3.8360 C   0  0  0  0  0  0  0  0  0  0  0  0
    5.9360   19.3570    1.5990 C   0  0  0  0  0  0  0  0  0  0  0  0
    5.6610   18.4880    2.6900 O   0  0  0  0  0  0  0  0  0  0  0  0
    9.4880   13.2690    3.1190 C   0  0  0  0  0  0  0  0  0  0  0  0
   10.3190   12.3740    2.4160 C   0  0  0  0  0  0  0  0  0  0  0  0
   11.7070   12.3820    2.5840 C   0  0  0  0  0  0  0  0  0  0  0  0
   12.3110   13.2660    3.4760 C   0  0  0  0  0  0  0  0  0  0  0  0
   11.5100   14.1340    4.2110 C   0  0  0  0  0  0  0  0  0  0  0  0
   10.1170   14.1260    4.0440 C   0  0  0  0  0  0  0  0  0  0  0  0
   13.6720   13.1700    3.5450 O   0  0  0  0  0  0  0  0  0  0  0  0
   14.3610   14.2340    4.1900 C   0  0  0  0  0  0  0  0  0  0  0  0
    7.1370   12.4610    4.0520 C   0  0  0  0  0  0  0  0  0  0  0  0
    7.8010   11.8030    5.1070 C   0  0  0  0  0  0  0  0  0  0  0  0
    7.0980   11.1070    6.0920 C   0  0  0  0  0  0  0  0  0  0  0  0
    5.7120   11.0220    6.0310 C   0  0  0  0  0  0  0  0  0  0  0  0
    5.0310   11.6170    4.9730 C   0  0  0  0  0  0  0  0  0  0  0  0
    5.7370   12.3130    3.9870 C   0  0  0  0  0  0  0  0  0  0  0  0
    6.4000   12.5570   -0.8460 C   0  0  0  0  0  0  0  0  0  0  0  0
    6.2530   11.7700   -2.0470 O   0  0  0  0  0  0  0  0  0  0  0  0
    7.2300   11.9440   -2.9860 C   0  0  0  0  0  0  0  0  0  0  0  0
    7.1740   12.7550   -3.9020 O   0  0  0  0  0  0  0  0  0  0  0  0
    8.3690   10.9750   -2.7060 C   0  0  0  0  0  0  0  0  0  0  0  0
    8.9650   10.5410   -3.9220 O   0  0  0  0  0  0  0  0  0  0  0  0
    9.7530    9.4250   -3.8630 C   0  0  0  0  0  0  0  0  0  0  0  0
    9.4620    8.5620   -2.8040 C   0  0  0  0  0  0  0  0  0  0  0  0
   10.1890    7.3840   -2.6250 C   0  0  0  0  0  0  0  0  0  0  0  0
   11.2160    7.0620   -3.5090 C   0  0  0  0  0  0  0  0  0  0  0  0
   11.5130    7.9190   -4.5680 C   0  0  0  0  0  0  0  0  0  0  0  0
   10.7830    9.0990   -4.7460 C   0  0  0  0  0  0  0  0  0  0  0  0
    6.1674   11.6621    2.5210 H   0  0  0  0  0  0  0  0  0  0  0  0
    8.0244   10.2781    0.4743 H   0  0  0  0  0  0  0  0  0  0  0  0
    7.6354    9.6855    2.0645 H   0  0  0  0  0  0  0  0  0  0  0  0
    5.4450    9.0961    1.4589 H   0  0  0  0  0  0  0  0  0  0  0  0
    4.9474   12.5577    0.6809 H   0  0  0  0  0  0  0  0  0  0  0  0
    5.5024    9.3329   -2.1577 H   0  0  0  0  0  0  0  0  0  0  0  0
    8.0270    5.0535    2.0038 H   0  0  0  0  0  0  0  0  0  0  0  0
    6.9534    4.7804   -3.2247 H   0  0  0  0  0  0  0  0  0  0  0  0
    7.6963    3.4761   -2.2605 H   0  0  0  0  0  0  0  0  0  0  0  0
    6.9558   17.2328    0.6134 H   0  0  0  0  0  0  0  0  0  0  0  0
    7.9234   14.9489    0.7792 H   0  0  0  0  0  0  0  0  0  0  0  0
    6.5954   14.6832    4.8850 H   0  0  0  0  0  0  0  0  0  0  0  0
    5.6342   16.9675    4.7066 H   0  0  0  0  0  0  0  0  0  0  0  0
    6.2471   20.3399    1.9825 H   0  0  0  0  0  0  0  0  0  0  0  0
    6.7432   18.9308    0.9851 H   0  0  0  0  0  0  0  0  0  0  0  0
    5.0306   19.4727    0.9851 H   0  0  0  0  0  0  0  0  0  0  0  0
    9.8656   11.6532    1.7197 H   0  0  0  0  0  0  0  0  0  0  0  0
   12.3290   11.6829    2.0058 H   0  0  0  0  0  0  0  0  0  0  0  0
   11.9712   14.8303    4.9269 H   0  0  0  0  0  0  0  0  0  0  0  0
    9.5004   14.8058    4.6504 H   0  0  0  0  0  0  0  0  0  0  0  0
   14.2830   14.1135    5.2806 H   0  0  0  0  0  0  0  0  0  0  0  0
   15.4203   14.2175    3.8941 H   0  0  0  0  0  0  0  0  0  0  0  0
   13.9126   15.1939    3.8941 H   0  0  0  0  0  0  0  0  0  0  0  0
    8.8994   11.8388    5.1553 H   0  0  0  0  0  0  0  0  0  0  0  0
    7.6419   10.6250    6.9178 H   0  0  0  0  0  0  0  0  0  0  0  0
    5.1560   10.4871    6.8151 H   0  0  0  0  0  0  0  0  0  0  0  0
    3.9354   11.5396    4.9124 H   0  0  0  0  0  0  0  0  0  0  0  0
    5.1878   12.7546    3.1423 H   0  0  0  0  0  0  0  0  0  0  0  0
    5.9298   13.5395   -0.9996 H   0  0  0  0  0  0  0  0  0  0  0  0
    7.4726   12.6732   -0.6315 H   0  0  0  0  0  0  0  0  0  0  0  0
    9.1289   11.4781   -2.0900 H   0  0  0  0  0  0  0  0  0  0  0  0
    7.9681   10.0994   -2.1744 H   0  0  0  0  0  0  0  0  0  0  0  0
    8.6516    8.8133   -2.1039 H   0  0  0  0  0  0  0  0  0  0  0  0
    9.9514    6.7114   -1.7876 H   0  0  0  0  0  0  0  0  0  0  0  0
   11.7911    6.1343   -3.3721 H   0  0  0  0  0  0  0  0  0  0  0  0
   12.3245    7.6662   -5.2662 H   0  0  0  0  0  0  0  0  0  0  0  0
   11.0214    9.7710   -5.5836 H   0  0  0  0  0  0  0  0  0  0  0  0
  2  1  1  0
  3  2  1  0
  4  3  1  0
  5  4  1  0
  5  1  1  0
  6  3  1  0
  7  6  1  0
  8  7  2  0
  9  8  1  0
 10  9  2  0
 10  6  1  0
 11 10  1  0
 12 11  2  0
 13 12  1  0
 14 13  2  0
 14  9  1  0
 15 14  1  0
 16  1  1  0
 17 16  1  0
 19 18  2  0
 20 19  1  0
 21 20  2  0
 21 17  1  0
 22 21  1  0
 23 22  2  0
 23 18  1  0
 25 24  1  0
 25 18  1  0
 26 17  1  0
 27 26  2  0
 28 27  1  0
 29 28  2  0
 30 29  1  0
 31 26  1  0
 31 30  2  0
 32 29  1  0
 33 32  1  0
 34 17  1  0
 35 34  2  0
 36 35  1  0
 37 36  2  0
 38 37  1  0
 39 38  2  0
 39 34  1  0
 40  5  1  0
 41 40  1  0
 42 41  1  0
 43 42  2  0
 44 42  1  0
 45 44  1  0
 46 45  1  0
 47 46  2  0
 48 47  1  0
 49 48  2  0
 50 49  1  0
 51 46  1  0
 51 50  2  0
  1 52  1  1
  2 53  1  0
  2 54  1  0
  3 55  1  1
  5 56  1  1
  7 57  1  0
 12 58  1  0
 15 59  1  0
 15 60  1  0
 19 61  1  0
 20 62  1  0
 22 63  1  0
 23 64  1  0
 24 65  1  0
 24 66  1  0
 24 67  1  0
 27 68  1  0
 28 69  1  0
 30 70  1  0
 31 71  1  0
 33 72  1  0
 33 73  1  0
 33 74  1  0
 35 75  1  0
 36 76  1  0
 37 77  1  0
 38 78  1  0
 39 79  1  0
 40 80  1  0
 40 81  1  0
 44 82  1  0
 44 83  1  0
 47 84  1  0
 48 85  1  0
 49 86  1  0
 50 87  1  0
 51 88  1  0
M  END
$$$$
=
     RDKit          3D

 39 40  0  0  0  0  0  0  0  0999 V2000
   19.0740   13.8650    3.2680 O   0  0  0  0  0  0  0  0  0  0  0  0
   18.4860   14.7970    3.7940 C   0  0  0  0  0  0  0  0  0  0  0  0
   18.9130   15.4590    4.9080 N   0  0  0  0  0  0  0  0  0  0  0  0
   17.3160   15.3290    3.3870 O   0  0  0  0  0  0  0  0  0  0  0  0
   16.3360   15.4400    4.4230 C   0  0  0  0  0  0  0  0  0  0  0  0
   15.1610   14.5810    4.0390 C   0  0  0  0  0  0  0  0  0  0  0  0
   13.8700   14.9100    4.4760 C   0  0  0  0  0  0  0  0  0  0  0  0
   12.7810   14.1070    4.1360 C   0  0  0  0  0  0  0  0  0  0  0  0
   12.9720   12.9630    3.3630 C   0  0  0  0  0  0  0  0  0  0  0  0
   14.2520   12.6190    2.9330 C   0  0  0  0  0  0  0  0  0  0  0  0
   15.3440   13.4220    3.2720 C   0  0  0  0  0  0  0  0  0  0  0  0
   20.2160   15.2530    5.4890 C   0  0  0  0  0  0  0  0  0  0  0  0
   21.2520   16.2920    5.0220 C   0  0  0  0  0  0  0  0  0  0  0  0
   21.9930   16.8690    6.2410 C   0  0  0  0  0  0  0  0  0  0  0  0
   22.9810   17.9570    5.8500 C   0  0  0  0  0  0  0  0  0  0  0  0
   22.2680   19.0140    5.0770 N   0  0  0  0  0  4  0  0  0  0  0  0
   21.6160   18.5090    3.8350 C   0  0  0  0  0  0  0  0  0  0  0  0
   20.6140   17.4270    4.1990 C   0  0  0  0  0  0  0  0  0  0  0  0
   18.2765   16.1354    5.3532 H   0  0  0  0  0  0  0  0  0  0  0  0
   16.7586   15.0912    5.3768 H   0  0  0  0  0  0  0  0  0  0  0  0
   16.0227   16.4874    4.5448 H   0  0  0  0  0  0  0  0  0  0  0  0
   13.7146   15.8082    5.0917 H   0  0  0  0  0  0  0  0  0  0  0  0
   11.7710   14.3769    4.4782 H   0  0  0  0  0  0  0  0  0  0  0  0
   12.1126   12.3319    3.0925 H   0  0  0  0  0  0  0  0  0  0  0  0
   14.4029   11.7142    2.3259 H   0  0  0  0  0  0  0  0  0  0  0  0
   16.3533   13.1431    2.9350 H   0  0  0  0  0  0  0  0  0  0  0  0
   20.1259   15.3148    6.5836 H   0  0  0  0  0  0  0  0  0  0  0  0
   20.5702   14.2642    5.1623 H   0  0  0  0  0  0  0  0  0  0  0  0
   21.9650   15.7773    4.3612 H   0  0  0  0  0  0  0  0  0  0  0  0
   21.2541   17.2944    6.9360 H   0  0  0  0  0  0  0  0  0  0  0  0
   22.5593   16.0511    6.7104 H   0  0  0  0  0  0  0  0  0  0  0  0
   23.4202   18.3980    6.7570 H   0  0  0  0  0  0  0  0  0  0  0  0
   23.7810   17.5240    5.2316 H   0  0  0  0  0  0  0  0  0  0  0  0
   21.5425   19.4256    5.6812 H   0  0  0  0  0  0  0  0  0  0  0  0
   22.9751   19.7046    4.7872 H   0  0  0  0  0  0  0  0  0  0  0  0
   21.0961   19.3366    3.3302 H   0  0  0  0  0  0  0  0  0  0  0  0
   22.3792   18.0930    3.1609 H   0  0  0  0  0  0  0  0  0  0  0  0
   20.1998   17.0024    3.2726 H   0  0  0  0  0  0  0  0  0  0  0  0
   19.8289   17.8892    4.8154 H   0  0  0  0  0  0  0  0  0  0  0  0
  2  1  2  0
  3  2  1  0
  4  2  1  0
  5  4  1  0
  6  5  1  0
  7  6  2  0
  8  7  1  0
  9  8  2  0
 10  9  1  0
 11 10  2  0
 11  6  1  0
 12  3  1  0
 13 12  1  0
 14 13  1  0
 15 14  1  0
 16 15  1  0
 17 16  1  0
 18 13  1  0
 18 17  1  0
  3 19  1  0
  5 20  1  0
  5 21  1  0
  7 22  1  0
  8 23  1  0
  9 24  1  0
 10 25  1  0
 11 26  1  0
 12 27  1  0
 12 28  1  0
 13 29  1  0
 14 30  1  0
 14 31  1  0
 15 32  1  0
 15 33  1  0
 16 34  1  0
 16 35  1  0
 17 36  1  0
 17 37  1  0
 18 38  1  0
 18 39  1  0
M  CHG  1  16   1
M  END
$$$$
=
     RDKit          3D

 32 34  0  0  0  0  0  0  0  0999 V2000
   27.8490   23.3330   10.8580 C   0  0  1  0  0  0  0  0  0  0  0  0
   26.5180   22.7860   11.3530 C   0  0  0  0  0  0  0  0  0  0  0  0
   26.3740   23.3490   12.7700 C   0  0  0  0  0  0  0  0  0  0  0  0
   27.2190   24.5670   12.7960 N   0  0  0  0  0  0  0  0  0  0  0  0
   27.8620   24.7360   11.4780 C   0  0  0  0  0  0  0  0  0  0  0  0
   28.0890   24.5520   13.8960 C   0  0  0  0  0  0  0  0  0  0  0  0
   29.2390   23.8180   13.7190 N   0  0  0  0  0  0  0  0  0  0  0  0
   30.0570   23.7060   14.8020 C   0  0  0  0  0  0  0  0  0  0  0  0
   29.7490   24.2460   16.0290 C   0  0  0  0  0  0  0  0  0  0  0  0
   28.6150   24.9380   16.2240 N   0  0  0  0  0  0  0  0  0  0  0  0
   27.7800   25.1170   15.1520 C   0  0  0  0  0  0  0  0  0  0  0  0
   26.6040   25.9090   15.3850 N   0  0  0  0  0  0  0  0  0  0  0  0
   25.7080   26.4630   14.4890 C   0  0  0  0  0  0  0  0  0  0  0  0
   24.7480   27.1270   15.2150 C   0  0  0  0  0  0  0  0  0  0  0  0
   25.1360   26.9550   16.5480 C   0  0  0  0  0  0  0  0  0  0  0  0
   26.2500   26.2340   16.6640 N   0  0  0  0  0  0  0  0  0  0  0  0
   28.9740   22.5210   11.4070 N   0  0  0  0  0  4  0  0  0  0  0  0
   27.9609   23.3220    9.7638 H   0  0  0  0  0  0  0  0  0  0  0  0
   25.6934   23.1312   10.7120 H   0  0  0  0  0  0  0  0  0  0  0  0
   26.4853   21.6866   11.3348 H   0  0  0  0  0  0  0  0  0  0  0  0
   25.3244   23.6039   12.9783 H   0  0  0  0  0  0  0  0  0  0  0  0
   26.6826   22.6200   13.5338 H   0  0  0  0  0  0  0  0  0  0  0  0
   27.2917   25.4410   10.8553 H   0  0  0  0  0  0  0  0  0  0  0  0
   28.8793   25.1463   11.5599 H   0  0  0  0  0  0  0  0  0  0  0  0
   31.0054   23.1599   14.6907 H   0  0  0  0  0  0  0  0  0  0  0  0
   30.4465   24.1080   16.8683 H   0  0  0  0  0  0  0  0  0  0  0  0
   25.7551   26.3861   13.3927 H   0  0  0  0  0  0  0  0  0  0  0  0
   23.8716   27.6713   14.8335 H   0  0  0  0  0  0  0  0  0  0  0  0
   24.5832   27.3687   17.4043 H   0  0  0  0  0  0  0  0  0  0  0  0
   28.9431   22.5433   12.4363 H   0  0  0  0  0  0  0  0  0  0  0  0
   28.8855   21.5477   11.0818 H   0  0  0  0  0  0  0  0  0  0  0  0
   29.8699   22.9115   11.0818 H   0  0  0  0  0  0  0  0  0  0  0  0
  2  1  1  0
  3  2  1  0
  4  3  1  0
  5  4  1  0
  5  1  1  0
  6  4  1  0
  7  6  2  0
  8  7  1  0
  9  8  2  0
 10  9  1  0
 11 10  2  0
 11  6  1  0
 12 11  1  0
 13 12  1  0
 14 13  2  0
 15 14  1  0
 16 12  1  0
 16 15  2  0
 17  1  1  0
  1 18  1  6
  2 19  1  0
  2 20  1  0
  3 21  1  0
  3 22  1  0
  5 23  1  0
  5 24  1  0
  8 25  1  0
  9 26  1  0
 13 27  1  0
 14 28  1  0
 15 29  1  0
 17 30  1  0
 17 31  1  0
 17 32  1  0
M  CHG  1  17   1
M  END
$$$$
=
     RDKit          3D

 37 38  0  0  0  0  0  0  0  0999 V2000
   15.6040   14.0930    3.5190 C   0  0  0  0  0  0  0  0  0  0  0  0
   16.2390   13.3920    2.7440 O   0  0  0  0  0  0  0  0  0  0  0  0
   16.2130   14.9420    4.4030 N   0  0  0  0  0  0  0  0  0  0  0  0
   15.5360   15.5430    5.5360 C   0  0  0  0  0  0  0  0  0  0  0  0
   16.6530   16.1520    6.3550 C   0  0  0  0  0  0  0  0  0  0  0  0
   17.8590   15.3720    5.9150 N   0  0  0  0  0  4  0  0  0  0  0  0
   17.6270   14.9310    4.5220 C   0  0  2  0  0  0  0  0  0  0  0  0
   14.2560   14.1260    3.6300 O   0  0  0  0  0  0  0  0  0  0  0  0
   12.5640   12.6200    2.7720 C   0  0  0  0  0  0  0  0  0  0  0  0
   13.6040   12.8620    3.8490 C   0  0  0  0  0  0  0  0  0  0  0  0
   18.4640   16.2210    3.5770 S   0  0  0  0  0  0  0  0  0  0  0  0
   19.6700   16.8550    4.7980 C   0  0  2  0  0  0  0  0  0  0  0  0
   19.7380   18.3860    4.8480 C   0  0  0  0  0  0  0  0  0  0  0  0
   20.9210   18.7140    5.7550 C   0  0  0  0  0  0  0  0  0  0  0  0
   22.1450   17.4590    5.4050 S   0  0  0  0  0  6  0  0  0  0  0  0
   22.4580   16.7660    6.6360 O   0  0  0  0  0  0  0  0  0  0  0  0
   23.1550   18.0180    4.5350 O   0  0  0  0  0  0  0  0  0  0  0  0
   21.0850   16.4050    4.4300 C   0  0  0  0  0  0  0  0  0  0  0  0
   14.8297   16.3175    5.2025 H   0  0  0  0  0  0  0  0  0  0  0  0
   14.9432   14.8140    6.1079 H   0  0  0  0  0  0  0  0  0  0  0  0
   16.7705   17.2222    6.1293 H   0  0  0  0  0  0  0  0  0  0  0  0
   16.4742   16.0987    7.4391 H   0  0  0  0  0  0  0  0  0  0  0  0
   18.6975   15.9685    5.9589 H   0  0  0  0  0  0  0  0  0  0  0  0
   18.0068   14.5594    6.5304 H   0  0  0  0  0  0  0  0  0  0  0  0
   17.9904   13.9443    4.1989 H   0  0  0  0  0  0  0  0  0  0  0  0
   11.5952   12.3946    3.2418 H   0  0  0  0  0  0  0  0  0  0  0  0
   12.4677   13.5197    2.1465 H   0  0  0  0  0  0  0  0  0  0  0  0
   12.8748   11.7702    2.1465 H   0  0  0  0  0  0  0  0  0  0  0  0
   13.1133   12.8712    4.8334 H   0  0  0  0  0  0  0  0  0  0  0  0
   14.3542   12.0583    3.8129 H   0  0  0  0  0  0  0  0  0  0  0  0
   19.3272   16.4595    5.7655 H   0  0  0  0  0  0  0  0  0  0  0  0
   19.9010   18.7964    3.8405 H   0  0  0  0  0  0  0  0  0  0  0  0
   18.8018   18.8233    5.2253 H   0  0  0  0  0  0  0  0  0  0  0  0
   21.3175   19.7139    5.5248 H   0  0  0  0  0  0  0  0  0  0  0  0
   20.6340   18.7224    6.8169 H   0  0  0  0  0  0  0  0  0  0  0  0
   21.2387   15.3476    4.6913 H   0  0  0  0  0  0  0  0  0  0  0  0
   21.2864   16.4856    3.3516 H   0  0  0  0  0  0  0  0  0  0  0  0
  2  1  2  0
  3  1  1  0
  4  3  1  0
  5  4  1  0
  6  5  1  0
  7  3  1  0
  7  6  1  0
  8  1  1  0
 10  9  1  0
 10  8  1  0
 11  7  1  0
 12 11  1  0
 13 12  1  0
 14 13  1  0
 15 14  1  0
 16 15  2  0
 17 15  2  0
 18 12  1  0
 18 15  1  0
  4 19  1  0
  4 20  1  0
  5 21  1  0
  5 22  1  0
  6 23  1  0
  6 24  1  0
  7 25  1  1
  9 26  1  0
  9 27  1  0
  9 28  1  0
 10 29  1  0
 10 30  1  0
 12 31  1  1
 13 32  1  0
 13 33  1  0
 14 34  1  0
 14 35  1  0
 18 36  1  0
 18 37  1  0
M  CHG  1   6   1
M  END
$$$$
=
     RDKit          3D

 42 44  0  0  0  0  0  0  0  0999 V2000
   16.6190   15.1120    4.4830 C   0  0  2  0  0  0  0  0  0  0  0  0
   13.2700   12.8770    2.7710 C   0  0  0  0  0  0  0  0  0  0  0  0
   12.9320   13.9150    3.8400 C   0  0  0  0  0  0  0  0  0  0  0  0
   14.1490   14.3940    4.6380 C   0  0  0  0  0  0  0  0  0  0  0  0
   15.4250   14.4010    3.7850 C   0  0  0  0  0  0  0  0  0  0  0  0
   15.7460   12.9780    3.2730 C   0  0  0  0  0  0  0  0  0  0  0  0
   14.5150   12.0790    3.1320 C   0  0  0  0  0  0  0  0  0  0  0  0
   16.1570   15.9240    5.6680 C   0  0  0  0  0  0  0  0  0  0  0  0
   17.0840   16.9000    6.3510 C   0  0  0  0  0  0  0  0  0  0  0  0
   16.6830   15.6310    7.0510 C   0  0  0  0  0  0  0  0  0  0  0  0
   17.3890   15.9680    3.5210 N   0  0  0  0  0  4  0  0  0  0  0  0
   18.7670   15.4980    3.1000 C   0  0  2  0  0  0  0  0  0  0  0  0
   19.5510   15.0000    4.2990 C   0  0  0  0  0  0  0  0  0  0  0  0
   20.0760   16.2760    4.9420 C   0  0  0  0  0  0  0  0  0  0  0  0
   19.8560   17.3360    3.9930 O   0  0  0  0  0  0  0  0  0  0  0  0
   19.5830   16.7260    2.7230 C   0  0  0  0  0  0  0  0  0  0  0  0
   17.2954   14.3262    4.8506 H   0  0  0  0  0  0  0  0  0  0  0  0
   12.4215   12.1849    2.6658 H   0  0  0  0  0  0  0  0  0  0  0  0
   13.4658   13.4084    1.8280 H   0  0  0  0  0  0  0  0  0  0  0  0
   12.4752   14.7857    3.3468 H   0  0  0  0  0  0  0  0  0  0  0  0
   12.2488   13.4315    4.5538 H   0  0  0  0  0  0  0  0  0  0  0  0
   13.9576   15.4149    5.0002 H   0  0  0  0  0  0  0  0  0  0  0  0
   14.3027   13.6985    5.4763 H   0  0  0  0  0  0  0  0  0  0  0  0
   15.2346   15.0191    2.8952 H   0  0  0  0  0  0  0  0  0  0  0  0
   16.2269   13.0644    2.2875 H   0  0  0  0  0  0  0  0  0  0  0  0
   16.4010   12.5086    4.0218 H   0  0  0  0  0  0  0  0  0  0  0  0
   14.7042   11.3377    2.3417 H   0  0  0  0  0  0  0  0  0  0  0  0
   14.3375   11.5883    4.1004 H   0  0  0  0  0  0  0  0  0  0  0  0
   15.1596   15.9914    5.2090 H   0  0  0  0  0  0  0  0  0  0  0  0
   18.1147   17.0254    5.9878 H   0  0  0  0  0  0  0  0  0  0  0  0
   17.0403   17.9711    6.5978 H   0  0  0  0  0  0  0  0  0  0  0  0
   16.0055   15.6714    7.9166 H   0  0  0  0  0  0  0  0  0  0  0  0
   17.2263   14.7943    7.5145 H   0  0  0  0  0  0  0  0  0  0  0  0
   16.8207   16.0565    2.6665 H   0  0  0  0  0  0  0  0  0  0  0  0
   17.5606   16.8440    4.0349 H   0  0  0  0  0  0  0  0  0  0  0  0
   18.6290   14.7418    2.3132 H   0  0  0  0  0  0  0  0  0  0  0  0
   18.8986   14.4505    4.9935 H   0  0  0  0  0  0  0  0  0  0  0  0
   20.3536   14.3003    4.0229 H   0  0  0  0  0  0  0  0  0  0  0  0
   19.5311   16.4828    5.8749 H   0  0  0  0  0  0  0  0  0  0  0  0
   21.1430   16.1836    5.1929 H   0  0  0  0  0  0  0  0  0  0  0  0
   20.5150   16.4400    2.2135 H   0  0  0  0  0  0  0  0  0  0  0  0
   19.0600   17.3957    2.0245 H   0  0  0  0  0  0  0  0  0  0  0  0
  3  2  1  0
  4  3  1  0
  5  4  1  0
  5  1  1  0
  6  5  1  0
  7  6  1  0
  7  2  1  0
  8  1  1  0
  9  8  1  0
 10  8  1  0
 10  9  1  0
 11  1  1  0
 12 11  1  0
 13 12  1  0
 14 13  1  0
 15 14  1  0
 16 12  1  0
 16 15  1  0
  1 17  1  1
  2 18  1  0
  2 19  1  0
  3 20  1  0
  3 21  1  0
  4 22  1  0
  4 23  1  0
  5 24  1  0
  6 25  1  0
  6 26  1  0
  7 27  1  0
  7 28  1  0
  8 29  1  0
  9 30  1  0
  9 31  1  0
 10 32  1  0
 10 33  1  0
 11 34  1  0
 11 35  1  0
 12 36  1  6
 13 37  1  0
 13 38  1  0
 14 39  1  0
 14 40  1  0
 16 41  1  0
 16 42  1  0
M  CHG  1  11   1
M  END
$$$$
=
     RDKit          3D

 18 18  0  0  0  0  0  0  0  0999 V2000
   20.5590   15.0460    6.6040 C   0  0  0  0  0  0  0  0  0  0  0  0
   21.0970   16.2820    5.9940 C   0  0  0  0  0  0  0  0  0  0  0  0
   22.2690   16.7280    6.5180 O   0  0  0  0  0  0  0  0  0  0  0  0
   22.6270   17.8390    5.8330 C   0  0  0  0  0  0  0  0  0  0  0  0
   21.6880   18.1260    4.8700 C   0  0  0  0  0  0  0  0  0  0  0  0
   20.6820   17.1190    4.9700 C   0  0  0  0  0  0  0  0  0  0  0  0
   19.4560   17.0020    4.1510 C   0  0  0  0  0  0  0  0  0  0  0  0
   19.5710   15.8590    3.2210 N   0  0  0  0  0  4  0  0  0  0  0  0
   20.5963   15.1317    7.7000 H   0  0  0  0  0  0  0  0  0  0  0  0
   19.5168   14.9021    6.2827 H   0  0  0  0  0  0  0  0  0  0  0  0
   21.1639   14.1852    6.2827 H   0  0  0  0  0  0  0  0  0  0  0  0
   23.5375   18.4274    6.0195 H   0  0  0  0  0  0  0  0  0  0  0  0
   21.7085   18.9671    4.1614 H   0  0  0  0  0  0  0  0  0  0  0  0
   18.5907   16.8469    4.8122 H   0  0  0  0  0  0  0  0  0  0  0  0
   19.3231   17.9262    3.5694 H   0  0  0  0  0  0  0  0  0  0  0  0
   19.6589   14.9855    3.7597 H   0  0  0  0  0  0  0  0  0  0  0  0
   18.7304   15.8133    2.6276 H   0  0  0  0  0  0  0  0  0  0  0  0
   20.4039   15.9817    2.6276 H   0  0  0  0  0  0  0  0  0  0  0  0
  2  1  1  0
  3  2  1  0
  4  3  1  0
  5  4  2  0
  6  2  2  0
  6  5  1  0
  7  6  1  0
  8  7  1  0
  1  9  1  0
  1 10  1  0
  1 11  1  0
  4 12  1  0
  5 13  1  0
  7 14  1  0
  7 15  1  0
  8 16  1  0
  8 17  1  0
  8 18  1  0
M  CHG  1   8   1
M  END
$$$$
=
     RDKit          3D

 34 36  0  0  0  0  0  0  0  0999 V2000
   29.1720   26.4660   15.6040 C   0  0  0  0  0  0  0  0  0  0  0  0
   30.4080   26.0130   16.0180 C   0  0  0  0  0  0  0  0  0  0  0  0
   30.8510   25.0200   15.1880 N   0  0  0  0  0  0  0  0  0  0  0  0
   29.9420   24.8380   14.2490 N   0  0  0  0  0  0  0  0  0  0  0  0
   28.9170   25.6850   14.5020 N   0  0  0  0  0  0  0  0  0  0  0  0
   27.7770   25.6810   13.5860 C   0  0  1  0  0  0  0  0  0  0  0  0
   28.2330   26.0240   12.1530 C   0  0  0  0  0  0  0  0  0  0  0  0
   27.8330   24.9720   11.1180 C   0  0  0  0  0  0  0  0  0  0  0  0
   28.2260   23.5570   11.5260 C   0  0  0  0  0  0  0  0  0  0  0  0
   27.8460   23.2720   12.9420 N   0  0  0  0  0  4  0  0  0  0  0  0
   27.0410   24.3320   13.6390 C   0  0  0  0  0  0  0  0  0  0  0  0
   28.5930   29.2670   14.2830 C   0  0  0  0  0  0  0  0  0  0  0  0
   28.0380   28.7170   15.4950 N   0  0  0  0  0  0  0  0  0  0  0  0
   27.1380   29.3720   16.2940 C   0  0  0  0  0  0  0  0  0  0  0  0
   26.9010   28.5240   17.3450 C   0  0  0  0  0  0  0  0  0  0  0  0
   27.6350   27.3770   17.2100 N   0  0  0  0  0  0  0  0  0  0  0  0
   28.3100   27.4990   16.0810 C   0  0  0  0  0  0  0  0  0  0  0  0
   30.9581   26.3956   16.8904 H   0  0  0  0  0  0  0  0  0  0  0  0
   27.0666   26.4577   13.9054 H   0  0  0  0  0  0  0  0  0  0  0  0
   27.7823   26.9851   11.8648 H   0  0  0  0  0  0  0  0  0  0  0  0
   29.3322   26.0656   12.1642 H   0  0  0  0  0  0  0  0  0  0  0  0
   26.7417   25.0083   10.9848 H   0  0  0  0  0  0  0  0  0  0  0  0
   28.3680   25.2067   10.1859 H   0  0  0  0  0  0  0  0  0  0  0  0
   27.7148   22.8397   10.8671 H   0  0  0  0  0  0  0  0  0  0  0  0
   29.3181   23.4615   11.4350 H   0  0  0  0  0  0  0  0  0  0  0  0
   27.2944   22.4022   12.9504 H   0  0  0  0  0  0  0  0  0  0  0  0
   28.7346   23.2156   13.4598 H   0  0  0  0  0  0  0  0  0  0  0  0
   26.0645   24.4315   13.1425 H   0  0  0  0  0  0  0  0  0  0  0  0
   26.9007   24.0416   14.6907 H   0  0  0  0  0  0  0  0  0  0  0  0
   29.3533   30.0204   14.5368 H   0  0  0  0  0  0  0  0  0  0  0  0
   29.0568   28.4621   13.6939 H   0  0  0  0  0  0  0  0  0  0  0  0
   27.7923   29.7380   13.6939 H   0  0  0  0  0  0  0  0  0  0  0  0
   26.6989   30.3668   16.1276 H   0  0  0  0  0  0  0  0  0  0  0  0
   26.2167   28.7360   18.1798 H   0  0  0  0  0  0  0  0  0  0  0  0
  2  1  2  0
  3  2  1  0
  4  3  2  0
  5  4  1  0
  5  1  1  0
  6  5  1  0
  7  6  1  0
  8  7  1  0
  9  8  1  0
 10  9  1  0
 11 10  1  0
 11  6  1  0
 13 12  1  0
 14 13  1  0
 15 14  2  0
 16 15  1  0
 17  1  1  0
 17 13  1  0
 17 16  2  0
  2 18  1  0
  6 19  1  1
  7 20  1  0
  7 21  1  0
  8 22  1  0
  8 23  1  0
  9 24  1  0
  9 25  1  0
 10 26  1  0
 10 27  1  0
 11 28  1  0
 11 29  1  0
 12 30  1  0
 12 31  1  0
 12 32  1  0
 14 33  1  0
 15 34  1  0
M  CHG  1  10   1
M  END
$$$$
=
     RDKit          3D

 39 41  0  0  0  0  0  0  0  0999 V2000
   19.8120   16.7250    4.4880 C   0  0  1  0  0  0  0  0  0  0  0  0
   21.2070   16.4830    5.0870 C   0  0  0  0  0  0  0  0  0  0  0  0
   21.1580   15.9130    6.4960 C   0  0  0  0  0  0  0  0  0  0  0  0
   20.3930   14.5980    6.5050 C   0  0  0  0  0  0  0  0  0  0  0  0
   18.9680   14.7780    5.9960 C   0  0  0  0  0  0  0  0  0  0  0  0
   18.9000   15.4770    4.6160 C   0  0  1  0  0  0  0  0  0  0  0  0
   17.4630   15.8810    4.1910 C   0  0  2  0  0  0  0  0  0  0  0  0
   16.9460   16.9180    5.1700 N   0  0  0  0  0  4  0  0  0  0  0  0
   17.9250   17.8140    5.8450 C   0  0  0  0  0  0  0  0  0  0  0  0
   19.1600   18.0280    4.9980 C   0  0  0  0  0  0  0  0  0  0  0  0
   16.4380   14.7720    3.9700 C   0  0  0  0  0  0  0  0  0  0  0  0
   15.1210   14.9110    4.4600 C   0  0  0  0  0  0  0  0  0  0  0  0
   14.1590   13.9190    4.2530 C   0  0  0  0  0  0  0  0  0  0  0  0
   14.4800   12.7740    3.5340 C   0  0  0  0  0  0  0  0  0  0  0  0
   15.7580   12.6310    3.0070 C   0  0  0  0  0  0  0  0  0  0  0  0
   16.7220   13.6230    3.2120 C   0  0  0  0  0  0  0  0  0  0  0  0
   19.9910   16.9280    3.0740 O   0  0  0  0  0  0  0  0  0  0  0  0
   21.7478   15.7755    4.4413 H   0  0  0  0  0  0  0  0  0  0  0  0
   21.7142   17.4574    5.1437 H   0  0  0  0  0  0  0  0  0  0  0  0
   22.1837   15.7390    6.8534 H   0  0  0  0  0  0  0  0  0  0  0  0
   20.6468   16.6299    7.1554 H   0  0  0  0  0  0  0  0  0  0  0  0
   20.9148   13.8764    5.8593 H   0  0  0  0  0  0  0  0  0  0  0  0
   20.3459   14.2329    7.5416 H   0  0  0  0  0  0  0  0  0  0  0  0
   18.4991   13.7867    5.9098 H   0  0  0  0  0  0  0  0  0  0  0  0
   18.4412   15.4214    6.7160 H   0  0  0  0  0  0  0  0  0  0  0  0
   19.2737   14.6972    3.9361 H   0  0  0  0  0  0  0  0  0  0  0  0
   17.5768   16.2800    3.1723 H   0  0  0  0  0  0  0  0  0  0  0  0
   16.2887   17.5206    4.6545 H   0  0  0  0  0  0  0  0  0  0  0  0
   16.5465   16.3599    5.9380 H   0  0  0  0  0  0  0  0  0  0  0  0
   17.4478   18.7872    6.0327 H   0  0  0  0  0  0  0  0  0  0  0  0
   18.2327   17.3389    6.7882 H   0  0  0  0  0  0  0  0  0  0  0  0
   19.9019   18.5716    5.6013 H   0  0  0  0  0  0  0  0  0  0  0  0
   18.8393   18.5898    4.1083 H   0  0  0  0  0  0  0  0  0  0  0  0
   14.8466   15.8194    5.0164 H   0  0  0  0  0  0  0  0  0  0  0  0
   13.1449   14.0447    4.6602 H   0  0  0  0  0  0  0  0  0  0  0  0
   13.7275   11.9860    3.3830 H   0  0  0  0  0  0  0  0  0  0  0  0
   16.0126   11.7326    2.4255 H   0  0  0  0  0  0  0  0  0  0  0  0
   17.7225   13.5017    2.7712 H   0  0  0  0  0  0  0  0  0  0  0  0
   20.6383   17.6621    2.9254 H   0  0  0  0  0  0  0  0  0  0  0  0
  2  1  1  0
  3  2  1  0
  4  3  1  0
  5  4  1  0
  6  5  1  0
  6  1  1  0
  7  6  1  0
  8  7  1  0
  9  8  1  0
 10  1  1  0
 10  9  1  0
 11  7  1  0
 12 11  2  0
 13 12  1  0
 14 13  2  0
 15 14  1  0
 16 15  2  0
 16 11  1  0
  1 17  1  6
  2 18  1  0
  2 19  1  0
  3 20  1  0
  3 21  1  0
  4 22  1  0
  4 23  1  0
  5 24  1  0
  5 25  1  0
  6 26  1  6
  7 27  1  6
  8 28  1  0
  8 29  1  0
  9 30  1  0
  9 31  1  0
 10 32  1  0
 10 33  1  0
 12 34  1  0
 13 35  1  0
 14 36  1  0
 15 37  1  0
 16 38  1  0
 17 39  1  0
M  CHG  1   8   1
M  END
$$$$
=
     RDKit          3D

 41 41  0  0  0  0  0  0  0  0999 V2000
   15.7070   14.9050    4.1010 C   0  0  1  0  0  0  0  0  0  0  0  0
   15.2080   15.2140    5.5110 N   0  0  0  0  0  4  0  0  0  0  0  0
   16.2700   15.3520    6.5710 C   0  0  0  0  0  0  0  0  0  0  0  0
   17.5140   16.0910    6.0420 C   0  0  1  0  0  0  0  0  0  0  0  0
   18.0450   15.4360    4.8330 N   0  0  0  0  0  0  0  0  0  0  0  0
   17.1910   14.4870    4.1150 C   0  0  0  0  0  0  0  0  0  0  0  0
   19.3760   15.5420    4.4490 C   0  0  0  0  0  0  0  0  0  0  0  0
   19.8380   14.9280    3.5000 O   0  0  0  0  0  0  0  0  0  0  0  0
   17.2080   17.5680    5.7710 C   0  0  0  0  0  0  0  0  0  0  0  0
   15.5130   12.7170    2.8040 C   0  0  0  0  0  0  0  0  0  0  0  0
   14.7710   13.8510    3.4970 C   0  0  0  0  0  0  0  0  0  0  0  0
   20.0680   16.3880    5.2470 O   0  0  0  0  0  0  0  0  0  0  0  0
   20.7260   17.5630    4.7030 C   0  0  0  0  0  0  0  0  0  0  0  0
   22.2360   17.3380    4.5590 C   0  0  0  0  0  0  0  0  0  0  0  0
   20.4920   18.6590    5.7540 C   0  0  0  0  0  0  0  0  0  0  0  0
   20.0810   18.0020    3.3840 C   0  0  0  0  0  0  0  0  0  0  0  0
   15.6769   15.8007    3.4631 H   0  0  0  0  0  0  0  0  0  0  0  0
   14.6836   16.0997    5.4729 H   0  0  0  0  0  0  0  0  0  0  0  0
   14.6408   14.4007    5.7898 H   0  0  0  0  0  0  0  0  0  0  0  0
   15.8550   15.9158    7.4195 H   0  0  0  0  0  0  0  0  0  0  0  0
   16.5779   14.3422    6.8799 H   0  0  0  0  0  0  0  0  0  0  0  0
   18.2870   16.0435    6.8231 H   0  0  0  0  0  0  0  0  0  0  0  0
   17.2738   13.5036    4.6008 H   0  0  0  0  0  0  0  0  0  0  0  0
   17.5353   14.4587    3.0706 H   0  0  0  0  0  0  0  0  0  0  0  0
   17.0976   18.1010    6.7269 H   0  0  0  0  0  0  0  0  0  0  0  0
   18.0329   18.0138    5.1958 H   0  0  0  0  0  0  0  0  0  0  0  0
   16.2739   17.6494    5.1958 H   0  0  0  0  0  0  0  0  0  0  0  0
   15.9503   12.0487    3.5604 H   0  0  0  0  0  0  0  0  0  0  0  0
   14.8109   12.1496    2.1754 H   0  0  0  0  0  0  0  0  0  0  0  0
   16.3140   13.1331    2.1754 H   0  0  0  0  0  0  0  0  0  0  0  0
   14.1187   14.3434    2.7608 H   0  0  0  0  0  0  0  0  0  0  0  0
   14.1985   13.4088    4.3257 H   0  0  0  0  0  0  0  0  0  0  0  0
   22.6934   17.2698    5.5571 H   0  0  0  0  0  0  0  0  0  0  0  0
   22.4165   16.4030    4.0083 H   0  0  0  0  0  0  0  0  0  0  0  0
   22.6813   18.1797    4.0083 H   0  0  0  0  0  0  0  0  0  0  0  0
   20.5843   18.2268    6.7613 H   0  0  0  0  0  0  0  0  0  0  0  0
   21.2404   19.4550    5.6266 H   0  0  0  0  0  0  0  0  0  0  0  0
   19.4837   19.0799    5.6266 H   0  0  0  0  0  0  0  0  0  0  0  0
   19.1888   18.6093    3.5964 H   0  0  0  0  0  0  0  0  0  0  0  0
   20.8010   18.5984    2.8044 H   0  0  0  0  0  0  0  0  0  0  0  0
   19.7903   17.1134    2.8044 H   0  0  0  0  0  0  0  0  0  0  0  0
  2  1  1  0
  3  2  1  0
  4  3  1  0
  5  4  1  0
  6  1  1  0
  6  5  1  0
  7  5  1  0
  8  7  2  0
  9  4  1  0
 11 10  1  0
 11  1  1  0
 12  7  1  0
 13 12  1  0
 14 13  1  0
 15 13  1  0
 16 13  1  0
  1 17  1  6
  2 18  1  0
  2 19  1  0
  3 20  1  0
  3 21  1  0
  4 22  1  1
  6 23  1  0
  6 24  1  0
  9 25  1  0
  9 26  1  0
  9 27  1  0
 10 28  1  0
 10 29  1  0
 10 30  1  0
 11 31  1  0
 11 32  1  0
 14 33  1  0
 14 34  1  0
 14 35  1  0
 15 36  1  0
 15 37  1  0
 15 38  1  0
 16 39  1  0
 16 40  1  0
 16 41  1  0
M  CHG  1   2   1
M  END
$$$$
=
     RDKit          3D

 39 40  0  0  0  0  0  0  0  0999 V2000
   16.6500   15.2010    4.0810 C   0  0  1  0  0  0  0  0  0  0  0  0
   12.9740   13.0090    3.3140 C   0  0  0  0  0  0  0  0  0  0  0  0
   12.9810   14.1570    4.1060 C   0  0  0  0  0  0  0  0  0  0  0  0
   14.1630   14.8670    4.3290 C   0  0  0  0  0  0  0  0  0  0  0  0
   15.3760   14.4360    3.7640 C   0  0  0  0  0  0  0  0  0  0  0  0
   15.3580   13.2760    2.9690 C   0  0  0  0  0  0  0  0  0  0  0  0
   14.1680   12.5720    2.7460 C   0  0  0  0  0  0  0  0  0  0  0  0
   10.6080   13.2610    3.2360 C   0  0  0  0  0  0  0  0  0  0  0  0
   11.7520   12.4160    3.1830 O   0  0  0  0  0  0  0  0  0  0  0  0
   16.6720   15.6520    5.5310 N   0  0  0  0  0  4  0  0  0  0  0  0
   17.9730   16.2080    6.0510 C   0  0  0  0  0  0  0  0  0  0  0  0
   18.1090   17.6870    5.6650 C   0  0  0  0  0  0  0  0  0  0  0  0
   19.4150   17.9810    4.9660 C   0  0  0  0  0  0  0  0  0  0  0  0
   20.5290   18.4130    5.7010 C   0  0  0  0  0  0  0  0  0  0  0  0
   21.7530   18.6250    5.0670 C   0  0  0  0  0  0  0  0  0  0  0  0
   21.8760   18.4140    3.6970 C   0  0  0  0  0  0  0  0  0  0  0  0
   20.7720   18.0040    2.9530 C   0  0  0  0  0  0  0  0  0  0  0  0
   19.5450   17.7930    3.5820 C   0  0  0  0  0  0  0  0  0  0  0  0
   17.9180   14.5170    3.7420 C   0  0  0  0  0  0  0  0  0  0  0  0
   18.9000   14.0150    3.3820 N   0  0  0  0  0  0  0  0  0  0  0  0
   16.6074   16.0705    3.4086 H   0  0  0  0  0  0  0  0  0  0  0  0
   12.0431   14.5080    4.5611 H   0  0  0  0  0  0  0  0  0  0  0  0
   14.1446   15.7726    4.9531 H   0  0  0  0  0  0  0  0  0  0  0  0
   16.2932   12.9160    2.5153 H   0  0  0  0  0  0  0  0  0  0  0  0
   14.1765   11.6686    2.1185 H   0  0  0  0  0  0  0  0  0  0  0  0
   10.3443   13.4557    4.2860 H   0  0  0  0  0  0  0  0  0  0  0  0
   10.8314   14.2126    2.7315 H   0  0  0  0  0  0  0  0  0  0  0  0
    9.7641   12.7677    2.7315 H   0  0  0  0  0  0  0  0  0  0  0  0
   15.9549   16.3831    5.6407 H   0  0  0  0  0  0  0  0  0  0  0  0
   16.5054   14.7974    6.0813 H   0  0  0  0  0  0  0  0  0  0  0  0
   17.9958   16.1149    7.1468 H   0  0  0  0  0  0  0  0  0  0  0  0
   18.8070   15.6434    5.6087 H   0  0  0  0  0  0  0  0  0  0  0  0
   17.2804   17.9544    4.9928 H   0  0  0  0  0  0  0  0  0  0  0  0
   18.0832   18.2795    6.5914 H   0  0  0  0  0  0  0  0  0  0  0  0
   20.4366   18.5855    6.7835 H   0  0  0  0  0  0  0  0  0  0  0  0
   22.6230   18.9597    5.6511 H   0  0  0  0  0  0  0  0  0  0  0  0
   22.8454   18.5710    3.2014 H   0  0  0  0  0  0  0  0  0  0  0  0
   20.8679   17.8465    1.8686 H   0  0  0  0  0  0  0  0  0  0  0  0
   18.6740   17.4772    2.9891 H   0  0  0  0  0  0  0  0  0  0  0  0
  3  2  2  0
  4  3  1  0
  5  4  2  0
  5  1  1  0
  6  5  1  0
  7  6  2  0
  7  2  1  0
  9  8  1  0
  9  2  1  0
 10  1  1  0
 11 10  1  0
 12 11  1  0
 13 12  1  0
 14 13  2  0
 15 14  1  0
 16 15  2  0
 17 16  1  0
 18 17  2  0
 18 13  1  0
 19  1  1  0
 20 19  3  0
  1 21  1  6
  3 22  1  0
  4 23  1  0
  6 24  1  0
  7 25  1  0
  8 26  1  0
  8 27  1  0
  8 28  1  0
 10 29  1  0
 10 30  1  0
 11 31  1  0
 11 32  1  0
 12 33  1  0
 12 34  1  0
 14 35  1  0
 15 36  1  0
 16 37  1  0
 17 38  1  0
 18 39  1  0
M  CHG  1  10   1
M  END
$$$$
=
     RDKit          3D

 50 52  0  0  0  0  0  0  0  0999 V2000
   24.9510   25.9540   13.4280 C   0  0  0  0  0  0  0  0  0  0  0  0
   26.3420   25.8020   13.3010 C   0  0  0  0  0  0  0  0  0  0  0  0
   26.9160   24.7030   12.6250 C   0  0  0  0  0  0  0  0  0  0  0  0
   26.0630   23.7700   12.0130 C   0  0  0  0  0  0  0  0  0  0  0  0
   24.6770   23.9200   12.1430 C   0  0  0  0  0  0  0  0  0  0  0  0
   24.1100   24.9980   12.8390 C   0  0  0  0  0  0  0  0  0  0  0  0
   26.6010   22.5870   11.2480 C   0  0  0  0  0  0  0  0  0  0  0  0
   28.0340   22.8100   10.7830 C   0  0  0  0  0  0  0  0  0  0  0  0
   28.8590   23.2550   11.9400 N   0  0  0  0  0  4  0  0  0  0  0  0
   28.4290   24.5820   12.4980 C   0  0  2  0  0  0  0  0  0  0  0  0
   29.2070   24.8300   13.7800 C   0  0  0  0  0  0  0  0  0  0  0  0
   29.4930   23.7880   14.6790 C   0  0  0  0  0  0  0  0  0  0  0  0
   30.2380   24.0400   15.8300 C   0  0  0  0  0  0  0  0  0  0  0  0
   30.7150   25.3230   16.1010 C   0  0  0  0  0  0  0  0  0  0  0  0
   30.4480   26.3690   15.2220 C   0  0  0  0  0  0  0  0  0  0  0  0
   29.6990   26.1150   14.0650 C   0  0  0  0  0  0  0  0  0  0  0  0
   30.8470   27.6680   15.3540 O   0  0  0  0  0  0  0  0  0  0  0  0
   29.8900   28.6150   15.8100 C   0  0  0  0  0  0  0  0  0  0  0  0
   28.8890   28.0030   16.4740 F   0  0  0  0  0  0  0  0  0  0  0  0
   29.3700   29.2490   14.7400 F   0  0  0  0  0  0  0  0  0  0  0  0
   30.4720   29.5330   16.6090 F   0  0  0  0  0  0  0  0  0  0  0  0
   24.3800   27.0110   14.0790 O   0  0  0  0  0  0  0  0  0  0  0  0
   25.2900   27.4730   16.2290 C   0  0  0  0  0  0  0  0  0  0  0  0
   24.1050   26.8980   15.4740 C   0  0  0  0  0  0  0  0  0  0  0  0
   22.7430   24.9420   12.8300 O   0  0  0  0  0  0  0  0  0  0  0  0
   22.0360   25.1650   11.6130 C   0  0  0  0  0  0  0  0  0  0  0  0
   22.2070   26.6280   11.2400 C   0  0  0  0  0  0  0  0  0  0  0  0
   27.0040   26.5621   13.7415 H   0  0  0  0  0  0  0  0  0  0  0  0
   24.0135   23.1709   11.6862 H   0  0  0  0  0  0  0  0  0  0  0  0
   26.5731   21.7009   11.8992 H   0  0  0  0  0  0  0  0  0  0  0  0
   25.9731   22.4462   10.3559 H   0  0  0  0  0  0  0  0  0  0  0  0
   28.4408   21.8706   10.3804 H   0  0  0  0  0  0  0  0  0  0  0  0
   28.0527   23.5796    9.9972 H   0  0  0  0  0  0  0  0  0  0  0  0
   28.7865   22.5476   12.6851 H   0  0  0  0  0  0  0  0  0  0  0  0
   29.8260   23.3638   11.6025 H   0  0  0  0  0  0  0  0  0  0  0  0
   28.6759   25.3919   11.7958 H   0  0  0  0  0  0  0  0  0  0  0  0
   29.1279   22.7709   14.4737 H   0  0  0  0  0  0  0  0  0  0  0  0
   30.4518   23.2198   16.5311 H   0  0  0  0  0  0  0  0  0  0  0  0
   31.3036   25.5084   17.0116 H   0  0  0  0  0  0  0  0  0  0  0  0
   29.4920   26.9385   13.3657 H   0  0  0  0  0  0  0  0  0  0  0  0
   25.1122   27.3867   17.3111 H   0  0  0  0  0  0  0  0  0  0  0  0
   26.2003   26.9164   15.9615 H   0  0  0  0  0  0  0  0  0  0  0  0
   25.4161   28.5325   15.9615 H   0  0  0  0  0  0  0  0  0  0  0  0
   23.1937   27.4618   15.7226 H   0  0  0  0  0  0  0  0  0  0  0  0
   23.9477   25.8450   15.7504 H   0  0  0  0  0  0  0  0  0  0  0  0
   22.4474   24.5253   10.8183 H   0  0  0  0  0  0  0  0  0  0  0  0
   20.9705   24.9212   11.7365 H   0  0  0  0  0  0  0  0  0  0  0  0
   22.2778   27.2339   12.1553 H   0  0  0  0  0  0  0  0  0  0  0  0
   23.1256   26.7503   10.6473 H   0  0  0  0  0  0  0  0  0  0  0  0
   21.3414   26.9589   10.6473 H   0  0  0  0  0  0  0  0  0  0  0  0
  2  1  2  0
  3  2  1  0
  4  3  2  0
  5  4  1  0
  6  5  2  0
  6  1  1  0
  7  4  1  0
  8  7  1  0
  9  8  1  0
 10  3  1  0
 10  9  1  0
 11 10  1  0
 12 11  2  0
 13 12  1  0
 14 13  2  0
 15 14  1  0
 16 15  2  0
 16 11  1  0
 17 15  1  0
 18 17  1  0
 19 18  1  0
 20 18  1  0
 21 18  1  0
 22  1  1  0
 24 22  1  0
 24 23  1  0
 25  6  1  0
 26 25  1  0
 27 26  1  0
  2 28  1  0
  5 29  1  0
  7 30  1  0
  7 31  1  0
  8 32  1  0
  8 33  1  0
  9 34  1  0
  9 35  1  0
 10 36  1  6
 12 37  1  0
 13 38  1  0
 14 39  1  0
 16 40  1  0
 23 41  1  0
 23 42  1  0
 23 43  1  0
 24 44  1  0
 24 45  1  0
 26 46  1  0
 26 47  1  0
 27 48  1  0
 27 49  1  0
 27 50  1  0
M  CHG  1   9   1
M  END
$$$$
=
     RDKit          3D

 25 25  0  0  0  0  0  0  0  0999 V2000
   18.0860   16.1470    4.5240 C   0  0  0  0  0  0  0  0  0  0  0  0
   17.8580   15.0330    3.7080 C   0  0  0  0  0  0  0  0  0  0  0  0
   16.5830   14.4290    3.6410 C   0  0  0  0  0  0  0  0  0  0  0  0
   15.5400   14.9630    4.4190 C   0  0  0  0  0  0  0  0  0  0  0  0
   15.7660   16.0690    5.2380 C   0  0  0  0  0  0  0  0  0  0  0  0
   17.0300   16.6460    5.2890 C   0  0  0  0  0  0  0  0  0  0  0  0
   17.2180   17.7040    6.0910 F   0  0  0  0  0  0  0  0  0  0  0  0
   19.5960   17.8230    3.7410 C   0  0  0  0  0  0  0  0  0  0  0  0
   19.2800   16.7930    4.6690 O   0  0  0  0  0  0  0  0  0  0  0  0
   16.3840   13.2000    2.7830 C   0  0  2  0  0  0  0  0  0  0  0  0
   15.1760   12.3500    3.1640 C   0  0  0  0  0  0  0  0  0  0  0  0
   17.5980   12.3430    2.8300 N   0  0  0  0  0  4  0  0  0  0  0  0
   18.6843   14.6216    3.1098 H   0  0  0  0  0  0  0  0  0  0  0  0
   14.5403   14.5057    4.3813 H   0  0  0  0  0  0  0  0  0  0  0  0
   14.9459   16.4840    5.8424 H   0  0  0  0  0  0  0  0  0  0  0  0
   19.8760   18.7357    4.2875 H   0  0  0  0  0  0  0  0  0  0  0  0
   20.4369   17.5016    3.1088 H   0  0  0  0  0  0  0  0  0  0  0  0
   18.7196   18.0285    3.1088 H   0  0  0  0  0  0  0  0  0  0  0  0
   16.1973   13.5833    1.7690 H   0  0  0  0  0  0  0  0  0  0  0  0
   15.0975   12.2947    4.2598 H   0  0  0  0  0  0  0  0  0  0  0  0
   14.2629   12.8057    2.7535 H   0  0  0  0  0  0  0  0  0  0  0  0
   15.2966   11.3366    2.7535 H   0  0  0  0  0  0  0  0  0  0  0  0
   17.8533   12.1628    3.8115 H   0  0  0  0  0  0  0  0  0  0  0  0
   17.4059   11.4492    2.3555 H   0  0  0  0  0  0  0  0  0  0  0  0
   18.3759   12.8233    2.3555 H   0  0  0  0  0  0  0  0  0  0  0  0
  2  1  2  0
  3  2  1  0
  4  3  2  0
  5  4  1  0
  6  5  2  0
  6  1  1  0
  7  6  1  0
  9  1  1  0
  9  8  1  0
 10  3  1  0
 11 10  1  0
 12 10  1  0
  2 13  1  0
  4 14  1  0
  5 15  1  0
  8 16  1  0
  8 17  1  0
  8 18  1  0
 10 19  1  6
 11 20  1  0
 11 21  1  0
 11 22  1  0
 12 23  1  0
 12 24  1  0
 12 25  1  0
M  CHG  1  12   1
M  END
$$$$
=
     RDKit          3D

 28 27  0  0  0  0  0  0  0  0999 V2000
   19.2070   16.0350    4.5750 C   0  0  0  0  0  0  0  0  0  0  0  0
   18.6330   16.7590    5.6760 O   0  0  0  0  0  0  0  0  0  0  0  0
   16.5650   15.8810    6.4860 C   0  0  0  0  0  0  0  0  0  0  0  0
   17.2100   16.8720    5.5390 C   0  0  0  0  0  0  0  0  0  0  0  0
   19.6400   14.6720    5.1240 C   0  0  0  0  0  0  0  0  0  0  0  0
   20.2430   14.7700    6.5240 C   0  0  0  0  0  0  0  0  0  0  0  0
   21.4960   15.5620    6.5030 N   0  0  0  0  0  4  0  0  0  0  0  0
   20.3640   16.7230    4.1240 O   0  0  0  0  0  0  0  0  0  0  0  0
   20.0480   17.9030    3.3830 C   0  0  0  0  0  0  0  0  0  0  0  0
   19.5900   17.4860    1.9990 C   0  0  0  0  0  0  0  0  0  0  0  0
   18.4901   15.9338    3.7468 H   0  0  0  0  0  0  0  0  0  0  0  0
   16.7625   16.1845    7.5247 H   0  0  0  0  0  0  0  0  0  0  0  0
   15.4793   15.8594    6.3105 H   0  0  0  0  0  0  0  0  0  0  0  0
   16.9848   14.8795    6.3105 H   0  0  0  0  0  0  0  0  0  0  0  0
   16.9160   16.6439    4.5039 H   0  0  0  0  0  0  0  0  0  0  0  0
   16.8845   17.8950    5.7788 H   0  0  0  0  0  0  0  0  0  0  0  0
   18.7607   14.0123    5.1640 H   0  0  0  0  0  0  0  0  0  0  0  0
   20.4151   14.2725    4.4535 H   0  0  0  0  0  0  0  0  0  0  0  0
   19.5199   15.2568    7.1949 H   0  0  0  0  0  0  0  0  0  0  0  0
   20.4731   13.7552    6.8807 H   0  0  0  0  0  0  0  0  0  0  0  0
   21.7978   15.7528    7.4691 H   0  0  0  0  0  0  0  0  0  0  0  0
   22.2297   15.0309    6.0126 H   0  0  0  0  0  0  0  0  0  0  0  0
   21.3310   16.4526    6.0126 H   0  0  0  0  0  0  0  0  0  0  0  0
   19.2440   18.4567    3.8900 H   0  0  0  0  0  0  0  0  0  0  0  0
   20.9319   18.5537    3.3103 H   0  0  0  0  0  0  0  0  0  0  0  0
   18.7793   16.7479    2.0880 H   0  0  0  0  0  0  0  0  0  0  0  0
   19.2246   18.3679    1.4525 H   0  0  0  0  0  0  0  0  0  0  0  0
   20.4339   17.0397    1.4525 H   0  0  0  0  0  0  0  0  0  0  0  0
  2  1  1  0
  4  3  1  0
  4  2  1  0
  5  1  1  0
  6  5  1  0
  7  6  1  0
  8  1  1  0
  9  8  1  0
 10  9  1  0
  1 11  1  0
  3 12  1  0
  3 13  1  0
  3 14  1  0
  4 15  1  0
  4 16  1  0
  5 17  1  0
  5 18  1  0
  6 19  1  0
  6 20  1  0
  7 21  1  0
  7 22  1  0
  7 23  1  0
  9 24  1  0
  9 25  1  0
 10 26  1  0
 10 27  1  0
 10 28  1  0
M  CHG  1   7   1
M  END
$$$$
=
     RDKit          3D

 38 38  0  0  0  0  0  0  0  0999 V2000
   16.1940   14.5260    3.8960 C   0  0  0  0  0  0  0  0  0  0  0  0
   15.3120   13.6170    3.2880 C   0  0  0  0  0  0  0  0  0  0  0  0
   15.8020   12.5120    2.5940 C   0  0  0  0  0  0  0  0  0  0  0  0
   17.1750   12.2940    2.5150 C   0  0  0  0  0  0  0  0  0  0  0  0
   18.0630   13.1780    3.1270 C   0  0  0  0  0  0  0  0  0  0  0  0
   17.5830   14.2970    3.8110 C   0  0  0  0  0  0  0  0  0  0  0  0
   15.6880   15.7180    4.6750 C   0  0  1  0  0  0  0  0  0  0  0  0
   14.4100   16.1960    4.2100 O   0  0  0  0  0  0  0  0  0  0  0  0
   15.5240   15.3820    6.1680 C   0  0  0  0  0  0  0  0  0  0  0  0
   16.7570   15.8350    6.8820 N   0  0  0  0  0  4  0  0  0  0  0  0
   18.3670   15.1970    4.4830 O   0  0  0  0  0  0  0  0  0  0  0  0
   19.5450   15.7110    3.8310 C   0  0  2  0  0  0  0  0  0  0  0  0
   20.7210   15.5910    4.7980 C   0  0  0  0  0  0  0  0  0  0  0  0
   19.2270   17.1700    3.4090 C   0  0  0  0  0  0  0  0  0  0  0  0
   19.6790   17.4680    1.9790 C   0  0  0  0  0  0  0  0  0  0  0  0
   19.7920   18.2210    4.3700 C   0  0  0  0  0  0  0  0  0  0  0  0
   14.2263   13.7786    3.3602 H   0  0  0  0  0  0  0  0  0  0  0  0
   15.1048   11.8129    2.1092 H   0  0  0  0  0  0  0  0  0  0  0  0
   17.5606   11.4212    1.9678 H   0  0  0  0  0  0  0  0  0  0  0  0
   19.1459   12.9932    3.0708 H   0  0  0  0  0  0  0  0  0  0  0  0
   16.4483   16.4982    4.5226 H   0  0  0  0  0  0  0  0  0  0  0  0
   13.8354   16.4109    4.9870 H   0  0  0  0  0  0  0  0  0  0  0  0
   14.6448   15.9039    6.5736 H   0  0  0  0  0  0  0  0  0  0  0  0
   15.3806   14.2997    6.3025 H   0  0  0  0  0  0  0  0  0  0  0  0
   16.6048   15.7791    7.8992 H   0  0  0  0  0  0  0  0  0  0  0  0
   17.5478   15.2296    6.6194 H   0  0  0  0  0  0  0  0  0  0  0  0
   16.9678   16.8084    6.6194 H   0  0  0  0  0  0  0  0  0  0  0  0
   19.8253   15.1500    2.9272 H   0  0  0  0  0  0  0  0  0  0  0  0
   20.3501   15.6288    5.8329 H   0  0  0  0  0  0  0  0  0  0  0  0
   21.2388   14.6354    4.6288 H   0  0  0  0  0  0  0  0  0  0  0  0
   21.4211   16.4224    4.6288 H   0  0  0  0  0  0  0  0  0  0  0  0
   18.1305   17.2449    3.4544 H   0  0  0  0  0  0  0  0  0  0  0  0
   20.5971   18.0733    2.0033 H   0  0  0  0  0  0  0  0  0  0  0  0
   19.8769   16.5227    1.4525 H   0  0  0  0  0  0  0  0  0  0  0  0
   18.8881   18.0224    1.4525 H   0  0  0  0  0  0  0  0  0  0  0  0
   19.6192   17.8996    5.4077 H   0  0  0  0  0  0  0  0  0  0  0  0
   20.8723   18.3337    4.1961 H   0  0  0  0  0  0  0  0  0  0  0  0
   19.2901   19.1843    4.1961 H   0  0  0  0  0  0  0  0  0  0  0  0
  2  1  2  0
  3  2  1  0
  4  3  2  0
  5  4  1  0
  6  1  1  0
  6  5  2  0
  7  1  1  0
  8  7  1  0
  9  7  1  0
 10  9  1  0
 11  6  1  0
 12 11  1  0
 13 12  1  0
 14 12  1  0
 15 14  1  0
 16 14  1  0
  2 17  1  0
  3 18  1  0
  4 19  1  0
  5 20  1  0
  7 21  1  1
  8 22  1  0
  9 23  1  0
  9 24  1  0
 10 25  1  0
 10 26  1  0
 10 27  1  0
 12 28  1  6
 13 29  1  0
 13 30  1  0
 13 31  1  0
 14 32  1  0
 15 33  1  0
 15 34  1  0
 15 35  1  0
 16 36  1  0
 16 37  1  0
 16 38  1  0
M  CHG  1  10   1
M  END
$$$$
=
     RDKit          3D

 31 32  0  0  0  0  0  0  0  0999 V2000
   14.0110   13.8150    3.9600 C   0  0  0  0  0  0  0  0  0  0  0  0
   14.9300   13.1290    3.1560 C   0  0  0  0  0  0  0  0  0  0  0  0
   16.2590   13.5470    3.0730 C   0  0  0  0  0  0  0  0  0  0  0  0
   16.6990   14.6660    3.7900 C   0  0  0  0  0  0  0  0  0  0  0  0
   15.7920   15.3520    4.6200 C   0  0  0  0  0  0  0  0  0  0  0  0
   14.4550   14.9290    4.6860 C   0  0  0  0  0  0  0  0  0  0  0  0
   16.2150   16.5760    5.3960 C   0  0  0  0  0  0  0  0  0  0  0  0
   17.7310   16.6910    5.5380 C   0  0  0  0  0  0  0  0  0  0  0  0
   18.3740   16.4650    4.2090 N   0  0  0  0  0  4  0  0  0  0  0  0
   18.1410   15.0780    3.7050 C   0  0  0  0  0  0  0  0  0  0  0  0
   11.6370   14.5560    4.3920 C   0  0  0  0  0  0  0  0  0  0  0  0
   12.5570   13.3780    4.0590 C   0  0  0  0  0  0  0  0  0  0  0  0
   12.0960   12.6680    2.7850 C   0  0  0  0  0  0  0  0  0  0  0  0
   14.6002   12.2499    2.5829 H   0  0  0  0  0  0  0  0  0  0  0  0
   16.9666   12.9926    2.4390 H   0  0  0  0  0  0  0  0  0  0  0  0
   13.7438   15.4810    5.3180 H   0  0  0  0  0  0  0  0  0  0  0  0
   15.8420   17.4695    4.8740 H   0  0  0  0  0  0  0  0  0  0  0  0
   15.7929   16.4891    6.4081 H   0  0  0  0  0  0  0  0  0  0  0  0
   17.9898   17.6953    5.9045 H   0  0  0  0  0  0  0  0  0  0  0  0
   18.0907   15.9360    6.2525 H   0  0  0  0  0  0  0  0  0  0  0  0
   17.9829   17.1353    3.5318 H   0  0  0  0  0  0  0  0  0  0  0  0
   19.3894   16.5977    4.3194 H   0  0  0  0  0  0  0  0  0  0  0  0
   18.7427   14.3796    4.3051 H   0  0  0  0  0  0  0  0  0  0  0  0
   18.4312   15.0564    2.6442 H   0  0  0  0  0  0  0  0  0  0  0  0
   11.5555   14.6603    5.4840 H   0  0  0  0  0  0  0  0  0  0  0  0
   12.0552   15.4798    3.9656 H   0  0  0  0  0  0  0  0  0  0  0  0
   10.6395   14.3741    3.9656 H   0  0  0  0  0  0  0  0  0  0  0  0
   12.4919   12.6571    4.8873 H   0  0  0  0  0  0  0  0  0  0  0  0
   11.5151   11.7733    3.0536 H   0  0  0  0  0  0  0  0  0  0  0  0
   11.4674   13.3491    2.1926 H   0  0  0  0  0  0  0  0  0  0  0  0
   12.9740   12.3709    2.1926 H   0  0  0  0  0  0  0  0  0  0  0  0
  2  1  2  0
  3  2  1  0
  4  3  2  0
  5  4  1  0
  6  5  2  0
  6  1  1  0
  7  5  1  0
  8  7  1  0
  9  8  1  0
 10  4  1  0
 10  9  1  0
 12 11  1  0
 12  1  1  0
 13 12  1  0
  2 14  1  0
  3 15  1  0
  6 16  1  0
  7 17  1  0
  7 18  1  0
  8 19  1  0
  8 20  1  0
  9 21  1  0
  9 22  1  0
 10 23  1  0
 10 24  1  0
 11 25  1  0
 11 26  1  0
 11 27  1  0
 12 28  1  0
 13 29  1  0
 13 30  1  0
 13 31  1  0
M  CHG  1   9   1
M  END
$$$$
=
     RDKit          3D

 54 56  0  0  0  0  0  0  0  0999 V2000
   24.5560   26.1940   14.9640 N   0  0  1  0  0  4  0  0  0  0  0  0
   23.1680   25.9370   15.5170 C   0  0  0  0  0  0  0  0  0  0  0  0
   22.6390   24.5540   15.0590 C   0  0  0  0  0  0  0  0  0  0  0  0
   23.2080   24.1280   13.7210 N   0  0  0  0  0  4  0  0  0  0  0  0
   23.5850   25.2670   12.7940 C   0  0  0  0  0  0  0  0  0  0  0  0
   24.6170   26.2620   13.4470 C   0  0  2  0  0  0  0  0  0  0  0  0
   26.0230   26.0330   12.9300 C   0  0  0  0  0  0  0  0  0  0  0  0
   26.9940   27.0440   12.8750 C   0  0  0  0  0  0  0  0  0  0  0  0
   28.2610   26.7830   12.3420 C   0  0  0  0  0  0  0  0  0  0  0  0
   28.5800   25.5160   11.8480 C   0  0  0  0  0  0  0  0  0  0  0  0
   27.6330   24.4950   11.8990 C   0  0  0  0  0  0  0  0  0  0  0  0
   26.3640   24.7590   12.4440 C   0  0  0  0  0  0  0  0  0  0  0  0
   27.8630   23.1370   11.3340 C   0  0  0  0  0  0  0  0  0  0  0  0
   29.0080   22.8280   11.0210 O   0  0  0  0  0  0  0  0  0  0  0  0
   26.7690   22.3200   11.1780 N   0  0  0  0  0  0  0  0  0  0  0  0
   26.9020   21.0160   10.5680 C   0  0  0  0  0  0  0  0  0  0  0  0
   25.2770   27.3380   15.6930 C   0  0  0  0  0  0  0  0  0  0  0  0
   27.7310   27.4440   16.4180 N   0  0  0  0  0  0  0  0  0  0  0  0
   28.6500   26.5220   16.8420 C   0  0  0  0  0  0  0  0  0  0  0  0
   27.9900   25.3180   16.8650 C   0  0  0  0  0  0  0  0  0  0  0  0
   26.6870   25.4710   16.4610 N   0  0  0  0  0  0  0  0  0  0  0  0
   26.5590   26.7650   16.1950 C   0  0  0  0  0  0  0  0  0  0  0  0
   28.0080   28.8550   16.2100 C   0  0  0  0  0  0  0  0  0  0  0  0
   30.4460   29.5410   15.9460 C   0  0  0  0  0  0  0  0  0  0  0  0
   29.1640   29.1150   15.2450 C   0  0  0  0  0  0  0  0  0  0  0  0
   25.1079   25.3515   15.1799 H   0  0  0  0  0  0  0  0  0  0  0  0
   23.2076   25.9618   16.6160 H   0  0  0  0  0  0  0  0  0  0  0  0
   22.4891   26.7161   15.1400 H   0  0  0  0  0  0  0  0  0  0  0  0
   22.9145   23.8033   15.8144 H   0  0  0  0  0  0  0  0  0  0  0  0
   21.5477   24.6344   14.9472 H   0  0  0  0  0  0  0  0  0  0  0  0
   24.0531   23.5662   13.8973 H   0  0  0  0  0  0  0  0  0  0  0  0
   22.4609   23.6034   13.2440 H   0  0  0  0  0  0  0  0  0  0  0  0
   24.0310   24.8455   11.8811 H   0  0  0  0  0  0  0  0  0  0  0  0
   22.6689   25.8343   12.5729 H   0  0  0  0  0  0  0  0  0  0  0  0
   24.3306   27.2812   13.1483 H   0  0  0  0  0  0  0  0  0  0  0  0
   26.7575   28.0493   13.2537 H   0  0  0  0  0  0  0  0  0  0  0  0
   29.0141   27.5842   12.3116 H   0  0  0  0  0  0  0  0  0  0  0  0
   29.5752   25.3249   11.4202 H   0  0  0  0  0  0  0  0  0  0  0  0
   25.6207   23.9495   12.4911 H   0  0  0  0  0  0  0  0  0  0  0  0
   25.8442   22.6402   11.4992 H   0  0  0  0  0  0  0  0  0  0  0  0
   26.9801   20.2500   11.3536 H   0  0  0  0  0  0  0  0  0  0  0  0
   26.0200   20.8118    9.9432 H   0  0  0  0  0  0  0  0  0  0  0  0
   27.8070   20.9941    9.9432 H   0  0  0  0  0  0  0  0  0  0  0  0
   25.4756   28.1679   14.9989 H   0  0  0  0  0  0  0  0  0  0  0  0
   24.6663   27.7386   16.5156 H   0  0  0  0  0  0  0  0  0  0  0  0
   29.7008   26.7075   17.1092 H   0  0  0  0  0  0  0  0  0  0  0  0
   28.4433   24.3620   17.1659 H   0  0  0  0  0  0  0  0  0  0  0  0
   27.1029   29.3312   15.8050 H   0  0  0  0  0  0  0  0  0  0  0  0
   28.3003   29.2737   17.1843 H   0  0  0  0  0  0  0  0  0  0  0  0
   30.3016   29.4930   17.0354 H   0  0  0  0  0  0  0  0  0  0  0  0
   31.2647   28.8666   15.6546 H   0  0  0  0  0  0  0  0  0  0  0  0
   30.6983   30.5713   15.6546 H   0  0  0  0  0  0  0  0  0  0  0  0
   28.8652   29.9119   14.5482 H   0  0  0  0  0  0  0  0  0  0  0  0
   29.3747   28.1689   14.7249 H   0  0  0  0  0  0  0  0  0  0  0  0
  2  1  1  0
  3  2  1  0
  4  3  1  0
  5  4  1  0
  6  5  1  0
  6  1  1  0
  7  6  1  0
  8  7  2  0
  9  8  1  0
 10  9  2  0
 11 10  1  0
 12  7  1  0
 12 11  2  0
 13 11  1  0
 14 13  2  0
 15 13  1  0
 16 15  1  0
 17  1  1  0
 19 18  1  0
 20 19  2  0
 21 20  1  0
 22 21  2  0
 22 17  1  0
 22 18  1  0
 23 18  1  0
 25 24  1  0
 25 23  1  0
  1 26  1  1
  2 27  1  0
  2 28  1  0
  3 29  1  0
  3 30  1  0
  4 31  1  0
  4 32  1  0
  5 33  1  0
  5 34  1  0
  6 35  1  1
  8 36  1  0
  9 37  1  0
 10 38  1  0
 12 39  1  0
 15 40  1  0
 16 41  1  0
 16 42  1  0
 16 43  1  0
 17 44  1  0
 17 45  1  0
 19 46  1  0
 20 47  1  0
 23 48  1  0
 23 49  1  0
 24 50  1  0
 24 51  1  0
 24 52  1  0
 25 53  1  0
 25 54  1  0
M  CHG  2   1   1   4   1
M  END
$$$$
=
     RDKit          3D

 17 17  0  0  0  0  0  0  0  0999 V2000
   17.4850   15.2740    5.0360 C   0  0  2  0  0  0  0  0  0  0  0  0
   18.9480   15.3100    5.3540 C   0  0  0  0  0  0  0  0  0  0  0  0
   19.4250   14.8490    6.4950 N   0  0  0  0  0  0  0  0  0  0  0  0
   20.7980   15.0290    6.5220 C   0  0  0  0  0  0  0  0  0  0  0  0
   21.3370   15.6520    5.4160 C   0  0  0  0  0  0  0  0  0  0  0  0
   20.0930   16.0290    4.3000 S   0  0  0  0  0  0  0  0  0  0  0  0
   17.3120   15.5070    3.5290 N   0  0  0  0  0  4  0  0  0  0  0  0
   16.7020   16.3310    5.8300 C   0  0  0  0  0  0  0  0  0  0  0  0
   17.4450   17.4000    6.1600 F   0  0  0  0  0  0  0  0  0  0  0  0
   16.2600   15.7570    6.9790 F   0  0  0  0  0  0  0  0  0  0  0  0
   15.6080   16.7400    5.1540 F   0  0  0  0  0  0  0  0  0  0  0  0
   17.0818   14.2918    5.3235 H   0  0  0  0  0  0  0  0  0  0  0  0
   21.4169   14.6973    7.3687 H   0  0  0  0  0  0  0  0  0  0  0  0
   22.4048   15.8735    5.2721 H   0  0  0  0  0  0  0  0  0  0  0  0
   16.7048   16.3247    3.3755 H   0  0  0  0  0  0  0  0  0  0  0  0
   18.2327   15.6777    3.1000 H   0  0  0  0  0  0  0  0  0  0  0  0
   16.8823   14.6750    3.1000 H   0  0  0  0  0  0  0  0  0  0  0  0
  2  1  1  0
  3  2  2  0
  4  3  1  0
  5  4  2  0
  6  5  1  0
  6  2  1  0
  7  1  1  0
  8  1  1  0
  9  8  1  0
 10  8  1  0
 11  8  1  0
  1 12  1  1
  4 13  1  0
  5 14  1  0
  7 15  1  0
  7 16  1  0
  7 17  1  0
M  CHG  1   7   1
M  END
$$$$
=
     RDKit          3D

 41 41  0  0  0  0  0  0  0  0999 V2000
   16.8060   15.1840    4.6030 C   0  0  2  0  0  0  0  0  0  0  0  0
   15.9810   15.5260    5.8570 C   0  0  0  0  0  0  0  0  0  0  0  0
   16.9060   16.4150    6.6680 C   0  0  0  0  0  0  0  0  0  0  0  0
   17.5840   17.2440    5.5930 C   0  0  0  0  0  0  0  0  0  0  0  0
   17.7570   16.3150    4.4790 N   0  0  0  0  0  0  0  0  0  0  0  0
   18.8750   16.2280    3.6830 C   0  0  0  0  0  0  0  0  0  0  0  0
   19.1520   15.2510    2.9780 O   0  0  0  0  0  0  0  0  0  0  0  0
   19.8730   17.4010    3.6460 C   0  0  2  0  0  0  0  0  0  0  0  0
   20.3040   17.7480    2.2310 C   0  0  0  0  0  0  0  0  0  0  0  0
   21.1060   16.9910    4.4150 N   0  0  0  0  0  4  0  0  0  0  0  0
   15.8430   14.9930    3.4010 C   0  0  0  0  0  0  0  0  0  0  0  0
   15.1820   13.6910    3.2970 N   0  0  0  0  0  0  0  0  0  0  0  0
   13.8510   13.6130    3.7020 C   0  0  0  0  0  0  0  0  0  0  0  0
   13.2330   14.5920    4.1210 O   0  0  0  0  0  0  0  0  0  0  0  0
   13.1780   12.2660    3.6290 C   0  0  0  0  0  0  0  0  0  0  0  0
   17.1960   12.3120    2.8930 C   0  0  0  0  0  0  0  0  0  0  0  0
   15.8060   12.6960    2.4180 C   0  0  0  0  0  0  0  0  0  0  0  0
   17.3698   14.2407    4.6507 H   0  0  0  0  0  0  0  0  0  0  0  0
   15.0600   16.0628    5.5857 H   0  0  0  0  0  0  0  0  0  0  0  0
   15.6576   14.6319    6.4101 H   0  0  0  0  0  0  0  0  0  0  0  0
   16.3385   17.0514    7.3629 H   0  0  0  0  0  0  0  0  0  0  0  0
   17.6099   15.8557    7.3018 H   0  0  0  0  0  0  0  0  0  0  0  0
   16.9503   18.0933    5.2978 H   0  0  0  0  0  0  0  0  0  0  0  0
   18.5368   17.6761    5.9328 H   0  0  0  0  0  0  0  0  0  0  0  0
   19.3779   18.2814    4.0815 H   0  0  0  0  0  0  0  0  0  0  0  0
   21.1604   18.4375    2.2672 H   0  0  0  0  0  0  0  0  0  0  0  0
   20.5951   16.8293    1.7007 H   0  0  0  0  0  0  0  0  0  0  0  0
   19.4686   18.2285    1.7007 H   0  0  0  0  0  0  0  0  0  0  0  0
   20.9170   17.0538    5.4256 H   0  0  0  0  0  0  0  0  0  0  0  0
   21.3557   16.0217    4.1720 H   0  0  0  0  0  0  0  0  0  0  0  0
   21.8864   17.6178    4.1720 H   0  0  0  0  0  0  0  0  0  0  0  0
   15.0592   15.7613    3.4748 H   0  0  0  0  0  0  0  0  0  0  0  0
   16.4755   15.0720    2.5045 H   0  0  0  0  0  0  0  0  0  0  0  0
   12.9919   11.8935    4.6471 H   0  0  0  0  0  0  0  0  0  0  0  0
   12.2221   12.3623    3.0933 H   0  0  0  0  0  0  0  0  0  0  0  0
   13.8290   11.5594    3.0933 H   0  0  0  0  0  0  0  0  0  0  0  0
   17.2189   12.3057    3.9927 H   0  0  0  0  0  0  0  0  0  0  0  0
   17.4489   11.3103    2.5152 H   0  0  0  0  0  0  0  0  0  0  0  0
   17.9272   13.0418    2.5152 H   0  0  0  0  0  0  0  0  0  0  0  0
   15.1757   11.7947    2.3976 H   0  0  0  0  0  0  0  0  0  0  0  0
   15.8990   13.1383    1.4151 H   0  0  0  0  0  0  0  0  0  0  0  0
  2  1  1  0
  3  2  1  0
  4  3  1  0
  5  1  1  0
  5  4  1  0
  6  5  1  0
  7  6  2  0
  8  6  1  0
  9  8  1  0
 10  8  1  0
 11  1  1  0
 12 11  1  0
 13 12  1  0
 14 13  2  0
 15 13  1  0
 17 12  1  0
 17 16  1  0
  1 18  1  1
  2 19  1  0
  2 20  1  0
  3 21  1  0
  3 22  1  0
  4 23  1  0
  4 24  1  0
  8 25  1  1
  9 26  1  0
  9 27  1  0
  9 28  1  0
 10 29  1  0
 10 30  1  0
 10 31  1  0
 11 32  1  0
 11 33  1  0
 15 34  1  0
 15 35  1  0
 15 36  1  0
 16 37  1  0
 16 38  1  0
 16 39  1  0
 17 40  1  0
 17 41  1  0
M  CHG  1  10   1
M  END
$$$$
=
     RDKit          3D

 27 29  0  0  0  0  0  0  0  0999 V2000
   14.1780   12.0560    2.9370 N   0  0  0  0  0  0  0  0  0  0  0  0
   14.8410   13.1940    3.3680 C   0  0  0  0  0  0  0  0  0  0  0  0
   14.0890   14.1940    3.8640 N   0  0  0  0  0  0  0  0  0  0  0  0
   14.7080   15.3090    4.2920 C   0  0  0  0  0  0  0  0  0  0  0  0
   16.0250   15.5690    4.3030 N   0  0  0  0  0  0  0  0  0  0  0  0
   16.7520   14.5500    3.7990 C   0  0  0  0  0  0  0  0  0  0  0  0
   16.2270   13.3580    3.3230 C   0  0  0  0  0  0  0  0  0  0  0  0
   17.3400   12.6200    2.9000 C   0  0  0  0  0  0  0  0  0  0  0  0
   18.4950   13.2570    3.0940 N   0  0  0  0  0  0  0  0  0  0  0  0
   18.1360   14.4590    3.6450 N   0  0  0  0  0  0  0  0  0  0  0  0
   19.1530   15.4100    3.9750 C   0  0  0  0  0  0  0  0  0  0  0  0
   19.3080   16.6100    3.2660 C   0  0  0  0  0  0  0  0  0  0  0  0
   20.3170   17.5180    3.6170 C   0  0  0  0  0  0  0  0  0  0  0  0
   21.1760   17.2270    4.6830 C   0  0  0  0  0  0  0  0  0  0  0  0
   21.0350   16.0350    5.3990 C   0  0  0  0  0  0  0  0  0  0  0  0
   20.0280   15.1320    5.0440 C   0  0  0  0  0  0  0  0  0  0  0  0
   22.2310   18.1790    5.0490 N   0  0  0  0  0  4  0  0  0  0  0  0
   22.4150   19.1530    4.3040 O   0  0  0  0  0  0  0  0  0  0  0  0
   22.8770   17.9560    6.0830 O   0  0  0  0  0  1  0  0  0  0  0  0
   14.7116   11.2646    2.5499 H   0  0  0  0  0  0  0  0  0  0  0  0
   13.1516   12.0016    3.0038 H   0  0  0  0  0  0  0  0  0  0  0  0
   14.0554   16.1048    4.6804 H   0  0  0  0  0  0  0  0  0  0  0  0
   17.2683   11.6173    2.4534 H   0  0  0  0  0  0  0  0  0  0  0  0
   18.6331   16.8405    2.4285 H   0  0  0  0  0  0  0  0  0  0  0  0
   20.4332   18.4569    3.0559 H   0  0  0  0  0  0  0  0  0  0  0  0
   21.7117   15.8087    6.2362 H   0  0  0  0  0  0  0  0  0  0  0  0
   19.9175   14.1930    5.6062 H   0  0  0  0  0  0  0  0  0  0  0  0
  2  1  1  0
  3  2  2  0
  4  3  1  0
  5  4  2  0
  6  5  1  0
  7  2  1  0
  7  6  2  0
  8  7  1  0
  9  8  2  0
 10  9  1  0
 10  6  1  0
 11 10  1  0
 12 11  2  0
 13 12  1  0
 14 13  2  0
 15 14  1  0
 16 15  2  0
 16 11  1  0
 17 14  1  0
 18 17  2  0
 19 17  1  0
  1 20  1  0
  1 21  1  0
  4 22  1  0
  8 23  1  0
 12 24  1  0
 13 25  1  0
 15 26  1  0
 16 27  1  0
M  CHG  2  17   1  19  -1
M  END
$$$$
=
     RDKit          3D

 43 45  0  0  0  0  0  0  0  0999 V2000
   25.8900   27.3440   16.0500 C   0  0  1  0  0  0  0  0  0  0  0  0
   26.4500   28.7400   16.3190 C   0  0  1  0  0  0  0  0  0  0  0  0
   27.9330   28.5030   16.5850 C   0  0  2  0  0  0  0  0  0  0  0  0
   28.3080   27.3430   15.8120 O   0  0  0  0  0  0  0  0  0  0  0  0
   27.1310   26.5280   15.6420 C   0  0  2  0  0  0  0  0  0  0  0  0
   27.1120   26.0270   14.2810 N   0  0  0  0  0  0  0  0  0  0  0  0
   26.3020   26.5040   13.2780 C   0  0  0  0  0  0  0  0  0  0  0  0
   26.4980   25.8760   12.1370 N   0  0  0  0  0  0  0  0  0  0  0  0
   27.4640   24.9470   12.4230 C   0  0  0  0  0  0  0  0  0  0  0  0
   27.8670   25.0260   13.7370 C   0  0  0  0  0  0  0  0  0  0  0  0
   28.8110   24.2860   14.3680 N   0  0  0  0  0  0  0  0  0  0  0  0
   29.3770   23.3970   13.5930 C   0  0  0  0  0  0  0  0  0  0  0  0
   30.3480   22.5920   14.0910 N   0  0  0  0  0  0  0  0  0  0  0  0
   29.0570   23.2230   12.2630 N   0  0  0  0  0  0  0  0  0  0  0  0
   28.0920   23.9520   11.5810 C   0  0  0  0  0  0  0  0  0  0  0  0
   27.8370   23.7450   10.3990 O   0  0  0  0  0  0  0  0  0  0  0  0
   26.2790   29.5790   15.1720 O   0  0  0  0  0  0  0  0  0  0  0  0
   25.3480   26.7750   17.2600 O   0  0  0  0  0  0  0  0  0  0  0  0
   24.0020   27.1940   17.5020 C   0  0  0  0  0  0  0  0  0  0  0  0
   23.0550   26.3970   16.6100 C   0  0  0  0  0  0  0  0  0  0  0  0
   21.3990   26.1640   18.2670 C   0  0  0  0  0  0  0  0  0  0  0  0
   22.3090   25.4840   17.4130 O   0  0  0  0  0  0  0  0  0  0  0  0
   28.2360   28.2100   18.0580 C   0  0  0  0  0  0  0  0  0  0  0  0
   27.1110   28.5650   18.8620 O   0  0  0  0  0  0  0  0  0  0  0  0
   25.0891   27.3546   15.2961 H   0  0  0  0  0  0  0  0  0  0  0  0
   25.9432   29.2431   17.1557 H   0  0  0  0  0  0  0  0  0  0  0  0
   28.4902   29.4115   16.3128 H   0  0  0  0  0  0  0  0  0  0  0  0
   27.1338   25.6442   16.2969 H   0  0  0  0  0  0  0  0  0  0  0  0
   25.5735   27.3171   13.4129 H   0  0  0  0  0  0  0  0  0  0  0  0
   30.7966   21.8905   13.4847 H   0  0  0  0  0  0  0  0  0  0  0  0
   30.6369   22.6820   15.0755 H   0  0  0  0  0  0  0  0  0  0  0  0
   29.5705   22.5007   11.7381 H   0  0  0  0  0  0  0  0  0  0  0  0
   26.0902   30.5053   15.4659 H   0  0  0  0  0  0  0  0  0  0  0  0
   23.7470   27.0181   18.5575 H   0  0  0  0  0  0  0  0  0  0  0  0
   23.9046   28.2661   17.2759 H   0  0  0  0  0  0  0  0  0  0  0  0
   22.3656   27.0848   16.0985 H   0  0  0  0  0  0  0  0  0  0  0  0
   23.6359   25.8395   15.8604 H   0  0  0  0  0  0  0  0  0  0  0  0
   21.6634   25.9664   19.3163 H   0  0  0  0  0  0  0  0  0  0  0  0
   21.4522   27.2454   18.0728 H   0  0  0  0  0  0  0  0  0  0  0  0
   20.3770   25.8065   18.0728 H   0  0  0  0  0  0  0  0  0  0  0  0
   28.4492   27.1379   18.1809 H   0  0  0  0  0  0  0  0  0  0  0  0
   29.1093   28.7996   18.3739 H   0  0  0  0  0  0  0  0  0  0  0  0
   27.3522   28.4889   19.8191 H   0  0  0  0  0  0  0  0  0  0  0  0
  2  1  1  0
  3  2  1  0
  4  3  1  0
  5  1  1  0
  5  4  1  0
  6  5  1  0
  7  6  1  0
  8  7  2  0
  9  8  1  0
 10  6  1  0
 10  9  2  0
 11 10  1  0
 12 11  2  0
 13 12  1  0
 14 12  1  0
 15 14  1  0
 15  9  1  0
 16 15  2  0
 17  2  1  0
 18  1  1  0
 19 18  1  0
 20 19  1  0
 22 21  1  0
 22 20  1  0
 23  3  1  0
 24 23  1  0
  1 25  1  6
  2 26  1  1
  3 27  1  6
  5 28  1  1
  7 29  1  0
 13 30  1  0
 13 31  1  0
 14 32  1  0
 17 33  1  0
 19 34  1  0
 19 35  1  0
 20 36  1  0
 20 37  1  0
 21 38  1  0
 21 39  1  0
 21 40  1  0
 23 41  1  0
 23 42  1  0
 24 43  1  0
M  END
$$$$
=
     RDKit          3D

 43 45  0  0  0  0  0  0  0  0999 V2000
   18.1570   14.4290    3.0030 C   0  0  2  0  0  0  0  0  0  0  0  0
   20.5580   16.4110    5.2090 C   0  0  0  0  0  0  0  0  0  0  0  0
   19.7840   15.3710    4.6800 C   0  0  0  0  0  0  0  0  0  0  0  0
   19.0060   15.5670    3.5260 C   0  0  0  0  0  0  0  0  0  0  0  0
   19.0270   16.8370    2.9180 C   0  0  0  0  0  0  0  0  0  0  0  0
   19.7840   17.8770    3.4660 C   0  0  0  0  0  0  0  0  0  0  0  0
   20.5220   17.6810    4.6330 C   0  0  0  0  0  0  0  0  0  0  0  0
   20.8480   14.8930    6.9100 C   0  0  0  0  0  0  0  0  0  0  0  0
   21.3000   16.1160    6.3210 O   0  0  0  0  0  0  0  0  0  0  0  0
   21.2050   18.7750    5.0860 O   0  0  0  0  0  0  0  0  0  0  0  0
   22.5290   18.8870    4.5650 C   0  0  0  0  0  0  0  0  0  0  0  0
   16.8110   14.5390    3.6640 C   0  0  0  0  0  0  0  0  0  0  0  0
   16.5620   15.2730    4.7490 N   0  0  0  0  0  0  0  0  0  0  0  0
   15.2380   15.0750    4.9060 N   0  0  0  0  0  0  0  0  0  0  0  0
   14.7130   14.3060    3.8960 C   0  0  0  0  0  0  0  0  0  0  0  0
   15.6990   13.9770    3.0740 N   0  0  0  0  0  0  0  0  0  0  0  0
   13.2960   13.9470    3.7940 C   0  0  0  0  0  0  0  0  0  0  0  0
   12.3410   14.7340    4.4550 C   0  0  0  0  0  0  0  0  0  0  0  0
   10.9800   14.4240    4.3810 C   0  0  0  0  0  0  0  0  0  0  0  0
   10.5550   13.3210    3.6440 C   0  0  0  0  0  0  0  0  0  0  0  0
   11.4850   12.5260    2.9790 C   0  0  0  0  0  0  0  0  0  0  0  0
   12.8450   12.8380    3.0540 C   0  0  0  0  0  0  0  0  0  0  0  0
   13.7500   12.0440    2.3930 O   0  0  0  0  0  0  0  0  0  0  0  0
   18.7800   13.1070    3.2990 N   0  0  0  0  0  4  0  0  0  0  0  0
   18.0639   14.4972    1.9091 H   0  0  0  0  0  0  0  0  0  0  0  0
   19.7848   14.3881    5.1739 H   0  0  0  0  0  0  0  0  0  0  0  0
   18.4422   17.0126    2.0030 H   0  0  0  0  0  0  0  0  0  0  0  0
   19.7976   18.8596    2.9717 H   0  0  0  0  0  0  0  0  0  0  0  0
   20.8802   14.9800    8.0061 H   0  0  0  0  0  0  0  0  0  0  0  0
   19.8157   14.6907    6.5884 H   0  0  0  0  0  0  0  0  0  0  0  0
   21.5006   14.0680    6.5884 H   0  0  0  0  0  0  0  0  0  0  0  0
   23.2464   18.9477    5.3967 H   0  0  0  0  0  0  0  0  0  0  0  0
   22.7562   18.0049    3.9484 H   0  0  0  0  0  0  0  0  0  0  0  0
   22.6048   19.7948    3.9484 H   0  0  0  0  0  0  0  0  0  0  0  0
   14.6865   15.4545    5.6888 H   0  0  0  0  0  0  0  0  0  0  0  0
   12.6677   15.6068    5.0394 H   0  0  0  0  0  0  0  0  0  0  0  0
   10.2441   15.0515    4.9051 H   0  0  0  0  0  0  0  0  0  0  0  0
    9.4837   13.0778    3.5873 H   0  0  0  0  0  0  0  0  0  0  0  0
   11.1501   11.6551    2.3965 H   0  0  0  0  0  0  0  0  0  0  0  0
   14.7167   12.2529    2.4371 H   0  0  0  0  0  0  0  0  0  0  0  0
   18.8413   12.9770    4.3189 H   0  0  0  0  0  0  0  0  0  0  0  0
   18.2038   12.3569    2.8913 H   0  0  0  0  0  0  0  0  0  0  0  0
   19.7253   13.0739    2.8913 H   0  0  0  0  0  0  0  0  0  0  0  0
  3  2  2  0
  4  3  1  0
  4  1  1  0
  5  4  2  0
  6  5  1  0
  7  6  2  0
  7  2  1  0
  9  8  1  0
  9  2  1  0
 10  7  1  0
 11 10  1  0
 12  1  1  0
 13 12  2  0
 14 13  1  0
 15 14  1  0
 16 15  2  0
 16 12  1  0
 17 15  1  0
 18 17  2  0
 19 18  1  0
 20 19  2  0
 21 20  1  0
 22 21  2  0
 22 17  1  0
 23 22  1  0
 24  1  1  0
  1 25  1  6
  3 26  1  0
  5 27  1  0
  6 28  1  0
  8 29  1  0
  8 30  1  0
  8 31  1  0
 11 32  1  0
 11 33  1  0
 11 34  1  0
 14 35  1  0
 18 36  1  0
 19 37  1  0
 20 38  1  0
 21 39  1  0
 23 40  1  0
 24 41  1  0
 24 42  1  0
 24 43  1  0
M  CHG  1  24   1
M  END
$$$$
=
     RDKit          3D

 28 29  0  0  0  0  0  0  0  0999 V2000
   27.2880   25.4340   15.6710 C   0  0  0  0  0  0  0  0  0  0  0  0
   26.7230   26.1480   16.6210 N   0  0  0  0  0  0  0  0  0  0  0  0
   27.4280   27.3340   16.6310 C   0  0  0  0  0  0  0  0  0  0  0  0
   28.4190   27.3310   15.6600 C   0  0  0  0  0  0  0  0  0  0  0  0
   28.3170   26.1070   15.0620 N   0  0  0  0  0  0  0  0  0  0  0  0
   29.2800   28.3210   15.3740 N   0  0  0  0  0  0  0  0  0  0  0  0
   29.0690   29.3850   16.1750 C   0  0  0  0  0  0  0  0  0  0  0  0
   28.1480   29.5330   17.1510 N   0  0  0  0  0  0  0  0  0  0  0  0
   27.3130   28.4990   17.4070 C   0  0  0  0  0  0  0  0  0  0  0  0
   26.3690   28.6520   18.4150 N   0  0  0  0  0  0  0  0  0  0  0  0
   29.1500   25.6100   13.9900 C   0  0  0  0  0  0  0  0  0  0  0  0
   28.6870   26.0980   12.6290 C   0  0  0  0  0  0  0  0  0  0  0  0
   26.9340   24.2060   15.3030 O   0  0  0  0  0  0  0  0  0  0  0  0
   26.2170   23.3980   13.1770 C   0  0  0  0  0  0  0  0  0  0  0  0
   25.8070   24.1530   14.4270 C   0  0  0  0  0  0  0  0  0  0  0  0
   29.7347   30.2454   16.0118 H   0  0  0  0  0  0  0  0  0  0  0  0
   25.7195   27.8830   18.6333 H   0  0  0  0  0  0  0  0  0  0  0  0
   26.3187   29.5344   18.9439 H   0  0  0  0  0  0  0  0  0  0  0  0
   30.1823   25.9517   14.1563 H   0  0  0  0  0  0  0  0  0  0  0  0
   29.0856   24.5119   13.9943 H   0  0  0  0  0  0  0  0  0  0  0  0
   27.9353   26.8903   12.7598 H   0  0  0  0  0  0  0  0  0  0  0  0
   29.5467   26.4968   12.0705 H   0  0  0  0  0  0  0  0  0  0  0  0
   28.2436   25.2605   12.0705 H   0  0  0  0  0  0  0  0  0  0  0  0
   26.7240   22.4644   13.4623 H   0  0  0  0  0  0  0  0  0  0  0  0
   25.3229   23.1624   12.5811 H   0  0  0  0  0  0  0  0  0  0  0  0
   26.9015   24.0196   12.5811 H   0  0  0  0  0  0  0  0  0  0  0  0
   25.4936   25.1732   14.1605 H   0  0  0  0  0  0  0  0  0  0  0  0
   24.9647   23.6453   14.9198 H   0  0  0  0  0  0  0  0  0  0  0  0
  2  1  2  0
  3  2  1  0
  4  3  2  0
  5  1  1  0
  5  4  1  0
  6  4  1  0
  7  6  2  0
  8  7  1  0
  9  8  2  0
  9  3  1  0
 10  9  1  0
 11  5  1  0
 12 11  1  0
 13  1  1  0
 15 14  1  0
 15 13  1  0
  7 16  1  0
 10 17  1  0
 10 18  1  0
 11 19  1  0
 11 20  1  0
 12 21  1  0
 12 22  1  0
 12 23  1  0
 14 24  1  0
 14 25  1  0
 14 26  1  0
 15 27  1  0
 15 28  1  0
M  END
$$$$
=
     RDKit          3D

 24 23  0  0  0  0  0  0  0  0999 V2000
   13.8810   12.6180    3.5730 C   0  0  2  0  0  0  0  0  0  0  0  0
   15.1550   12.5290    2.7440 C   0  0  0  0  0  0  0  0  0  0  0  0
   12.7690   12.0100    2.7910 N   0  0  0  0  0  4  0  0  0  0  0  0
   13.5050   14.0430    4.0000 C   0  0  0  0  0  0  0  0  0  0  0  0
   14.4180   14.6760    5.0560 C   0  0  0  0  0  0  0  0  0  0  0  0
   15.0580   15.9660    4.5320 C   0  0  0  0  0  0  0  0  0  0  0  0
   16.5980   15.8250    6.5040 C   0  0  0  0  0  0  0  0  0  0  0  0
   16.3260   16.2710    5.2710 C   0  0  0  0  0  0  0  0  0  0  0  0
   14.0645   12.0712    4.5096 H   0  0  0  0  0  0  0  0  0  0  0  0
   16.0251   12.4682    3.4143 H   0  0  0  0  0  0  0  0  0  0  0  0
   15.1176   11.6313    2.1094 H   0  0  0  0  0  0  0  0  0  0  0  0
   15.2427   13.4232    2.1094 H   0  0  0  0  0  0  0  0  0  0  0  0
   12.0652   11.6252    3.4371 H   0  0  0  0  0  0  0  0  0  0  0  0
   12.3329   12.7300    2.1975 H   0  0  0  0  0  0  0  0  0  0  0  0
   13.1398   11.2542    2.1975 H   0  0  0  0  0  0  0  0  0  0  0  0
   13.5272   14.6823    3.1051 H   0  0  0  0  0  0  0  0  0  0  0  0
   12.5110   13.9674    4.4651 H   0  0  0  0  0  0  0  0  0  0  0  0
   13.8235   14.9084    5.9519 H   0  0  0  0  0  0  0  0  0  0  0  0
   15.2193   13.9621    5.2974 H   0  0  0  0  0  0  0  0  0  0  0  0
   15.2841   15.8473    3.4620 H   0  0  0  0  0  0  0  0  0  0  0  0
   14.3529   16.7962    4.6852 H   0  0  0  0  0  0  0  0  0  0  0  0
   17.5507   16.0887    6.9866 H   0  0  0  0  0  0  0  0  0  0  0  0
   15.8688   15.1949    7.0343 H   0  0  0  0  0  0  0  0  0  0  0  0
   17.0780   16.8987    4.7705 H   0  0  0  0  0  0  0  0  0  0  0  0
  2  1  1  0
  3  1  1  0
  4  1  1  0
  5  4  1  0
  6  5  1  0
  8  6  1  0
  8  7  2  3
  1  9  1  1
  2 10  1  0
  2 11  1  0
  2 12  1  0
  3 13  1  0
  3 14  1  0
  3 15  1  0
  4 16  1  0
  4 17  1  0
  5 18  1  0
  5 19  1  0
  6 20  1  0
  6 21  1  0
  7 22  1  0
  7 23  1  0
  8 24  1  0
M  CHG  1   3   1
M  END
$$$$
=
     RDKit          3D

 39 40  0  0  0  0  0  0  0  0999 V2000
   29.4320   25.3380   16.7160 C   0  0  2  0  0  0  0  0  0  0  0  0
   29.6800   24.5920   15.3810 C   0  0  0  0  0  0  0  0  0  0  0  0
   30.8510   24.2900   15.1140 O   0  0  0  0  0  0  0  0  0  0  0  0
   28.6220   24.2670   14.5600 N   0  0  0  0  0  0  0  0  0  0  0  0
   27.2080   24.5890   14.8150 C   0  0  0  0  0  0  0  0  0  0  0  0
   26.2730   23.6720   14.0050 C   0  0  1  0  0  0  0  0  0  0  0  0
   24.8120   24.0110   14.2640 C   0  0  0  0  0  0  0  0  0  0  0  0
   26.4990   23.7670   12.5930 O   0  0  0  0  0  0  0  0  0  0  0  0
   27.8560   24.0400   12.2100 C   0  0  1  0  0  0  0  0  0  0  0  0
   28.8830   23.6070   13.2710 C   0  0  0  0  0  0  0  0  0  0  0  0
   28.1090   23.3470   10.8790 C   0  0  0  0  0  0  0  0  0  0  0  0
   29.4370   26.8440   16.5940 C   0  0  0  0  0  0  0  0  0  0  0  0
   30.5320   27.5330   16.0430 C   0  0  0  0  0  0  0  0  0  0  0  0
   30.5260   28.9260   15.9690 C   0  0  0  0  0  0  0  0  0  0  0  0
   29.4370   29.6470   16.4510 C   0  0  0  0  0  0  0  0  0  0  0  0
   28.3500   28.9790   17.0090 C   0  0  0  0  0  0  0  0  0  0  0  0
   28.3490   27.5860   17.0850 C   0  0  0  0  0  0  0  0  0  0  0  0
   30.4960   24.9220   17.6980 N   0  0  0  0  0  4  0  0  0  0  0  0
   28.4225   25.0605   17.0533 H   0  0  0  0  0  0  0  0  0  0  0  0
   26.9980   24.4587   15.8869 H   0  0  0  0  0  0  0  0  0  0  0  0
   27.0270   25.6296   14.5079 H   0  0  0  0  0  0  0  0  0  0  0  0
   26.4986   22.6487   14.3394 H   0  0  0  0  0  0  0  0  0  0  0  0
   24.6319   24.0528   15.3484 H   0  0  0  0  0  0  0  0  0  0  0  0
   24.5771   24.9875   13.8154 H   0  0  0  0  0  0  0  0  0  0  0  0
   24.1711   23.2377   13.8154 H   0  0  0  0  0  0  0  0  0  0  0  0
   27.9865   25.1280   12.1143 H   0  0  0  0  0  0  0  0  0  0  0  0
   28.8221   22.5171   13.4064 H   0  0  0  0  0  0  0  0  0  0  0  0
   29.8862   23.8978   12.9259 H   0  0  0  0  0  0  0  0  0  0  0  0
   28.4810   22.3280   11.0611 H   0  0  0  0  0  0  0  0  0  0  0  0
   27.1707   23.2980   10.3069 H   0  0  0  0  0  0  0  0  0  0  0  0
   28.8581   23.9141   10.3069 H   0  0  0  0  0  0  0  0  0  0  0  0
   31.3992   26.9697   15.6678 H   0  0  0  0  0  0  0  0  0  0  0  0
   31.3836   29.4559   15.5288 H   0  0  0  0  0  0  0  0  0  0  0  0
   29.4352   30.7454   16.3910 H   0  0  0  0  0  0  0  0  0  0  0  0
   27.4910   29.5505   17.3904 H   0  0  0  0  0  0  0  0  0  0  0  0
   27.4902   27.0644   17.5326 H   0  0  0  0  0  0  0  0  0  0  0  0
   30.1489   25.0577   18.6582 H   0  0  0  0  0  0  0  0  0  0  0  0
   30.7270   23.9287   17.5536 H   0  0  0  0  0  0  0  0  0  0  0  0
   31.3395   25.4952   17.5536 H   0  0  0  0  0  0  0  0  0  0  0  0
  2  1  1  0
  3  2  2  0
  4  2  1  0
  5  4  1  0
  6  5  1  0
  7  6  1  0
  8  6  1  0
  9  8  1  0
 10  9  1  0
 10  4  1  0
 11  9  1  0
 12  1  1  0
 13 12  2  0
 14 13  1  0
 15 14  2  0
 16 15  1  0
 17 12  1  0
 17 16  2  0
 18  1  1  0
  1 19  1  1
  5 20  1  0
  5 21  1  0
  6 22  1  1
  7 23  1  0
  7 24  1  0
  7 25  1  0
  9 26  1  6
 10 27  1  0
 10 28  1  0
 11 29  1  0
 11 30  1  0
 11 31  1  0
 13 32  1  0
 14 33  1  0
 15 34  1  0
 16 35  1  0
 17 36  1  0
 18 37  1  0
 18 38  1  0
 18 39  1  0
M  CHG  1  18   1
M  END
$$$$
=
     RDKit          3D

 19 19  0  0  0  0  0  0  0  0999 V2000
   16.9560   15.2680    3.8460 C   0  0  2  0  0  0  0  0  0  0  0  0
   15.6990   14.4590    3.6370 C   0  0  0  0  0  0  0  0  0  0  0  0
   15.7500   13.2650    2.9020 C   0  0  0  0  0  0  0  0  0  0  0  0
   14.5940   12.5120    2.7660 C   0  0  0  0  0  0  0  0  0  0  0  0
   13.4160   12.8610    3.3150 N   0  0  0  0  0  0  0  0  0  0  0  0
   13.3680   14.0130    4.0090 C   0  0  0  0  0  0  0  0  0  0  0  0
   14.4690   14.8330    4.2020 C   0  0  0  0  0  0  0  0  0  0  0  0
   18.1430   14.3870    3.8300 N   0  0  0  0  0  4  0  0  0  0  0  0
   16.9980   16.0100    5.1110 C   0  0  0  0  0  0  0  0  0  0  0  0
   17.0330   16.6250    6.1430 C   0  0  0  0  0  0  0  0  0  0  0  0
   16.9574   15.9939    3.0195 H   0  0  0  0  0  0  0  0  0  0  0  0
   16.6917   12.9319    2.4413 H   0  0  0  0  0  0  0  0  0  0  0  0
   14.6421   11.5824    2.1798 H   0  0  0  0  0  0  0  0  0  0  0  0
   12.4060   14.3197    4.4454 H   0  0  0  0  0  0  0  0  0  0  0  0
   14.3807   15.7601    4.7873 H   0  0  0  0  0  0  0  0  0  0  0  0
   18.4271   14.1761    4.7973 H   0  0  0  0  0  0  0  0  0  0  0  0
   17.9132   13.5102    3.3408 H   0  0  0  0  0  0  0  0  0  0  0  0
   18.9157   14.8608    3.3408 H   0  0  0  0  0  0  0  0  0  0  0  0
   17.0650   17.1879    7.0875 H   0  0  0  0  0  0  0  0  0  0  0  0
  2  1  1  0
  3  2  2  0
  4  3  1  0
  5  4  2  0
  6  5  1  0
  7  6  2  0
  7  2  1  0
  8  1  1  0
  9  1  1  0
 10  9  3  0
  1 11  1  6
  3 12  1  0
  4 13  1  0
  6 14  1  0
  7 15  1  0
  8 16  1  0
  8 17  1  0
  8 18  1  0
 10 19  1  0
M  CHG  1   8   1
M  END
$$$$
=
     RDKit          3D

 58 62  0  0  0  0  0  0  0  0999 V2000
   16.1620   14.0180    3.8880 N   0  0  0  0  0  0  0  0  0  0  0  0
   15.7940   12.8990    3.1650 C   0  0  0  0  0  0  0  0  0  0  0  0
   16.9400   12.3940    2.6150 C   0  0  0  0  0  0  0  0  0  0  0  0
   18.0060   13.1600    2.9630 N   0  0  0  0  0  0  0  0  0  0  0  0
   17.5370   14.1330    3.7300 C   0  0  0  0  0  0  0  0  0  0  0  0
   18.5650   15.1800    4.3090 C   0  0  0  0  0  0  0  0  0  0  0  0
   18.6690   16.4680    3.9740 N   0  0  0  0  0  0  0  0  0  0  0  0
   19.6510   16.9420    4.7480 N   0  0  0  0  0  0  0  0  0  0  0  0
   20.2400   15.9960    5.5430 C   0  0  0  0  0  0  0  0  0  0  0  0
   19.5320   14.8400    5.2860 C   0  0  0  0  0  0  0  0  0  0  0  0
   21.3870   16.2190    6.4460 C   0  0  0  0  0  0  0  0  0  0  0  0
   22.3130   17.3380    6.0790 N   0  0  0  0  0  4  0  0  0  0  0  0
   22.5030   17.5920    4.6210 C   0  0  0  0  0  0  0  0  0  0  0  0
   21.4280   18.5260    4.0680 C   0  0  0  0  0  0  0  0  0  0  0  0
   20.0260   18.3360    4.6370 C   0  0  0  0  0  0  0  0  0  0  0  0
   15.9040   15.4060    5.9150 C   0  0  0  0  0  0  0  0  0  0  0  0
   15.2160   14.8790    4.6300 C   0  0  0  0  0  0  0  0  0  0  0  0
   14.8520   16.1730    3.8390 C   0  0  0  0  0  0  0  0  0  0  0  0
   13.8720   14.1710    5.0020 C   0  0  0  0  0  0  0  0  0  0  0  0
   12.7530   14.1460    3.9470 C   0  0  0  0  0  0  0  0  0  0  0  0
   12.6060   12.7350    3.3220 C   0  0  0  0  0  0  0  0  0  0  0  0
   11.1830   12.7560    2.8630 C   0  0  0  0  0  0  0  0  0  0  0  0
   10.4700   13.7700    3.5100 C   0  0  0  0  0  0  0  0  0  0  0  0
   11.3480   14.5170    4.4650 C   0  0  0  0  0  0  0  0  0  0  0  0
    9.1180   13.9530    3.2750 C   0  0  0  0  0  0  0  0  0  0  0  0
    8.4830   13.1070    2.3630 C   0  0  0  0  0  0  0  0  0  0  0  0
    9.1990   12.0890    1.7150 C   0  0  0  0  0  0  0  0  0  0  0  0
   10.5600   11.9030    1.9690 C   0  0  0  0  0  0  0  0  0  0  0  0
   14.7775   12.4936    3.0536 H   0  0  0  0  0  0  0  0  0  0  0  0
   16.9909   11.4961    1.9816 H   0  0  0  0  0  0  0  0  0  0  0  0
   19.6874   13.8534    5.7470 H   0  0  0  0  0  0  0  0  0  0  0  0
   20.9878   16.4297    7.4491 H   0  0  0  0  0  0  0  0  0  0  0  0
   21.9933   15.3035    6.3815 H   0  0  0  0  0  0  0  0  0  0  0  0
   21.9437   18.2016    6.5018 H   0  0  0  0  0  0  0  0  0  0  0  0
   23.2386   17.0528    6.4295 H   0  0  0  0  0  0  0  0  0  0  0  0
   23.4901   18.0515    4.4644 H   0  0  0  0  0  0  0  0  0  0  0  0
   22.4288   16.6305    4.0918 H   0  0  0  0  0  0  0  0  0  0  0  0
   21.7396   19.5601    4.2769 H   0  0  0  0  0  0  0  0  0  0  0  0
   21.3498   18.2896    2.9966 H   0  0  0  0  0  0  0  0  0  0  0  0
   19.9879   18.7912    5.6377 H   0  0  0  0  0  0  0  0  0  0  0  0
   19.3190   18.8156    3.9441 H   0  0  0  0  0  0  0  0  0  0  0  0
   15.3842   15.0078    6.7989 H   0  0  0  0  0  0  0  0  0  0  0  0
   16.9542   15.0791    5.9290 H   0  0  0  0  0  0  0  0  0  0  0  0
   15.8619   16.5051    5.9290 H   0  0  0  0  0  0  0  0  0  0  0  0
   14.6240   16.9835    4.5469 H   0  0  0  0  0  0  0  0  0  0  0  0
   15.7022   16.4673    3.2061 H   0  0  0  0  0  0  0  0  0  0  0  0
   13.9731   15.9808    3.2061 H   0  0  0  0  0  0  0  0  0  0  0  0
   14.1105   13.1264    5.2507 H   0  0  0  0  0  0  0  0  0  0  0  0
   13.4612   14.7757    5.8240 H   0  0  0  0  0  0  0  0  0  0  0  0
   13.0778   14.9093    3.2246 H   0  0  0  0  0  0  0  0  0  0  0  0
   13.2979   12.5957    2.4782 H   0  0  0  0  0  0  0  0  0  0  0  0
   12.8409   11.9126    4.0137 H   0  0  0  0  0  0  0  0  0  0  0  0
   11.1723   15.6014    4.4080 H   0  0  0  0  0  0  0  0  0  0  0  0
   11.1785   14.2632    5.5218 H   0  0  0  0  0  0  0  0  0  0  0  0
    8.5578   14.7450    3.7936 H   0  0  0  0  0  0  0  0  0  0  0  0
    7.4119   13.2400    2.1508 H   0  0  0  0  0  0  0  0  0  0  0  0
    8.6835   11.4309    1.0000 H   0  0  0  0  0  0  0  0  0  0  0  0
   11.1221   11.0991    1.4711 H   0  0  0  0  0  0  0  0  0  0  0  0
  2  1  1  0
  3  2  2  0
  4  3  1  0
  5  1  1  0
  5  4  2  0
  6  5  1  0
  7  6  2  0
  8  7  1  0
  9  8  1  0
 10  6  1  0
 10  9  2  0
 11  9  1  0
 12 11  1  0
 13 12  1  0
 14 13  1  0
 15 14  1  0
 15  8  1  0
 17  1  1  0
 17 16  1  0
 18 17  1  0
 19 17  1  0
 20 19  1  0
 21 20  1  0
 22 21  1  0
 23 22  2  0
 24 23  1  0
 24 20  1  0
 25 23  1  0
 26 25  2  0
 27 26  1  0
 28 27  2  0
 28 22  1  0
  2 29  1  0
  3 30  1  0
 10 31  1  0
 11 32  1  0
 11 33  1  0
 12 34  1  0
 12 35  1  0
 13 36  1  0
 13 37  1  0
 14 38  1  0
 14 39  1  0
 15 40  1  0
 15 41  1  0
 16 42  1  0
 16 43  1  0
 16 44  1  0
 18 45  1  0
 18 46  1  0
 18 47  1  0
 19 48  1  0
 19 49  1  0
 20 50  1  0
 21 51  1  0
 21 52  1  0
 24 53  1  0
 24 54  1  0
 25 55  1  0
 26 56  1  0
 27 57  1  0
 28 58  1  0
M  CHG  1  12   1
M  END
$$$$
=
     RDKit          3D

 37 37  0  0  0  0  0  0  0  0999 V2000
   18.3080   14.9810    3.6360 C   0  0  0  0  0  0  0  0  0  0  0  0
   19.3190   14.2850    3.7300 O   0  0  0  0  0  0  0  0  0  0  0  0
   17.0740   14.3800    3.3760 N   0  0  0  0  0  0  0  0  0  0  0  0
   17.0960   12.9410    3.0840 C   0  0  0  0  0  0  0  0  0  0  0  0
   15.8030   12.4670    2.4260 C   0  0  0  0  0  0  0  0  0  0  0  0
   14.5660   12.7810    3.2730 C   0  0  0  0  0  0  0  0  0  0  0  0
   14.7470   14.0240    4.1480 C   0  0  1  0  0  0  0  0  0  0  0  0
   15.7640   15.0090    3.5420 C   0  0  0  0  0  0  0  0  0  0  0  0
   13.4220   14.6740    4.3520 N   0  0  0  0  0  4  0  0  0  0  0  0
   18.3730   16.5130    3.7850 C   0  0  2  0  0  0  0  0  0  0  0  0
   19.4100   17.0950    2.8220 C   0  0  0  0  0  0  0  0  0  0  0  0
   19.3770   18.2540    5.4270 C   0  0  0  0  0  0  0  0  0  0  0  0
   18.6220   16.9280    5.2660 C   0  0  0  0  0  0  0  0  0  0  0  0
   17.3050   16.9970    6.0500 C   0  0  0  0  0  0  0  0  0  0  0  0
   17.9365   12.7297    2.4066 H   0  0  0  0  0  0  0  0  0  0  0  0
   17.2063   12.4043    4.0378 H   0  0  0  0  0  0  0  0  0  0  0  0
   15.6994   12.9661    1.4513 H   0  0  0  0  0  0  0  0  0  0  0  0
   15.8646   11.3743    2.3156 H   0  0  0  0  0  0  0  0  0  0  0  0
   13.7117   12.9462    2.6000 H   0  0  0  0  0  0  0  0  0  0  0  0
   14.3974   11.9254    3.9434 H   0  0  0  0  0  0  0  0  0  0  0  0
   15.1551   13.7139    5.1213 H   0  0  0  0  0  0  0  0  0  0  0  0
   15.3989   15.3427    2.5595 H   0  0  0  0  0  0  0  0  0  0  0  0
   15.8718   15.8637    4.2260 H   0  0  0  0  0  0  0  0  0  0  0  0
   13.2360   14.7652    5.3610 H   0  0  0  0  0  0  0  0  0  0  0  0
   13.4274   15.6081    3.9180 H   0  0  0  0  0  0  0  0  0  0  0  0
   12.6866   14.0980    3.9180 H   0  0  0  0  0  0  0  0  0  0  0  0
   17.3972   16.9396    3.5096 H   0  0  0  0  0  0  0  0  0  0  0  0
   20.2277   17.5539    3.3972 H   0  0  0  0  0  0  0  0  0  0  0  0
   19.8135   16.2915    2.1883 H   0  0  0  0  0  0  0  0  0  0  0  0
   18.9343   17.8580    2.1883 H   0  0  0  0  0  0  0  0  0  0  0  0
   19.5036   18.4763    6.4968 H   0  0  0  0  0  0  0  0  0  0  0  0
   20.3648   18.1738    4.9498 H   0  0  0  0  0  0  0  0  0  0  0  0
   18.8039   19.0626    4.9498 H   0  0  0  0  0  0  0  0  0  0  0  0
   19.2683   16.1384    5.6770 H   0  0  0  0  0  0  0  0  0  0  0  0
   17.5195   16.9858    7.1288 H   0  0  0  0  0  0  0  0  0  0  0  0
   16.7726   17.9243    5.7916 H   0  0  0  0  0  0  0  0  0  0  0  0
   16.6786   16.1304    5.7916 H   0  0  0  0  0  0  0  0  0  0  0  0
  2  1  2  0
  3  1  1  0
  4  3  1  0
  5  4  1  0
  6  5  1  0
  7  6  1  0
  8  7  1  0
  8  3  1  0
  9  7  1  0
 10  1  1  0
 11 10  1  0
 13 12  1  0
 13 10  1  0
 14 13  1  0
  4 15  1  0
  4 16  1  0
  5 17  1  0
  5 18  1  0
  6 19  1  0
  6 20  1  0
  7 21  1  1
  8 22  1  0
  8 23  1  0
  9 24  1  0
  9 25  1  0
  9 26  1  0
 10 27  1  6
 11 28  1  0
 11 29  1  0
 11 30  1  0
 12 31  1  0
 12 32  1  0
 12 33  1  0
 13 34  1  0
 14 35  1  0
 14 36  1  0
 14 37  1  0
M  CHG  1   9   1
M  END
$$$$
=
     RDKit          3D

 45 46  0  0  0  0  0  0  0  0999 V2000
   17.5920   15.8470    4.6020 C   0  0  0  0  0  0  0  0  0  0  0  0
   19.9110   16.8670    4.4820 C   0  0  0  0  0  0  0  0  0  0  0  0
   19.0190   15.9410    5.0690 C   0  0  0  0  0  0  0  0  0  0  0  0
   19.4860   15.0860    6.0760 C   0  0  0  0  0  0  0  0  0  0  0  0
   20.8050   15.1740    6.5120 C   0  0  0  0  0  0  0  0  0  0  0  0
   21.6690   16.1220    5.9600 C   0  0  0  0  0  0  0  0  0  0  0  0
   21.2320   16.9860    4.9510 C   0  0  0  0  0  0  0  0  0  0  0  0
   19.6890   17.2910    2.1630 C   0  0  0  0  0  0  0  0  0  0  0  0
   19.3480   17.6610    3.5030 O   0  0  0  0  0  0  0  0  0  0  0  0
   22.0010   17.9800    4.4090 O   0  0  0  0  0  0  0  0  0  0  0  0
   23.1560   18.4000    5.1270 C   0  0  0  0  0  0  0  0  0  0  0  0
   17.3130   14.5290    3.9510 N   0  0  0  0  0  4  0  0  0  0  0  0
   16.0460   14.4180    3.1520 C   0  0  0  0  0  0  0  0  0  0  0  0
   14.9620   15.3060    3.7730 C   0  0  0  0  0  0  0  0  0  0  0  0
   14.2020   14.6910    4.9480 C   0  0  0  0  0  0  0  0  0  0  0  0
   12.9970   13.8640    4.5020 C   0  0  0  0  0  0  0  0  0  0  0  0
   13.3300   12.5300    3.8380 C   0  0  0  0  0  0  0  0  0  0  0  0
   14.2760   12.6120    2.6410 C   0  0  0  0  0  0  0  0  0  0  0  0
   15.7130   12.9230    3.0500 C   0  0  0  0  0  0  0  0  0  0  0  0
   16.9241   15.9663    5.4678 H   0  0  0  0  0  0  0  0  0  0  0  0
   17.4187   16.6412    3.8609 H   0  0  0  0  0  0  0  0  0  0  0  0
   18.8087   14.3435    6.5231 H   0  0  0  0  0  0  0  0  0  0  0  0
   21.1687   14.4931    7.2956 H   0  0  0  0  0  0  0  0  0  0  0  0
   22.7052   16.1899    6.3230 H   0  0  0  0  0  0  0  0  0  0  0  0
   20.4343   16.4823    2.1843 H   0  0  0  0  0  0  0  0  0  0  0  0
   18.7869   16.9445    1.6374 H   0  0  0  0  0  0  0  0  0  0  0  0
   20.1078   18.1619    1.6374 H   0  0  0  0  0  0  0  0  0  0  0  0
   22.9619   18.3294    6.2074 H   0  0  0  0  0  0  0  0  0  0  0  0
   24.0063   17.7535    4.8642 H   0  0  0  0  0  0  0  0  0  0  0  0
   23.3924   19.4417    4.8642 H   0  0  0  0  0  0  0  0  0  0  0  0
   18.0988   14.3226    3.3178 H   0  0  0  0  0  0  0  0  0  0  0  0
   17.1972   13.8650    4.7299 H   0  0  0  0  0  0  0  0  0  0  0  0
   16.1412   14.7967    2.1237 H   0  0  0  0  0  0  0  0  0  0  0  0
   15.4423   16.2304    4.1264 H   0  0  0  0  0  0  0  0  0  0  0  0
   14.2152   15.4693    2.9821 H   0  0  0  0  0  0  0  0  0  0  0  0
   14.8882   14.0392    5.5087 H   0  0  0  0  0  0  0  0  0  0  0  0
   13.8266   15.5169    5.5701 H   0  0  0  0  0  0  0  0  0  0  0  0
   12.3798   13.6573    5.3888 H   0  0  0  0  0  0  0  0  0  0  0  0
   12.4829   14.4643    3.7369 H   0  0  0  0  0  0  0  0  0  0  0  0
   13.7954   11.8811    4.5946 H   0  0  0  0  0  0  0  0  0  0  0  0
   12.3787   12.1405    3.4464 H   0  0  0  0  0  0  0  0  0  0  0  0
   14.2608   11.6471    2.1130 H   0  0  0  0  0  0  0  0  0  0  0  0
   13.9277   13.4324    1.9962 H   0  0  0  0  0  0  0  0  0  0  0  0
   15.8955   12.4643    4.0330 H   0  0  0  0  0  0  0  0  0  0  0  0
   16.3552   12.5171    2.2545 H   0  0  0  0  0  0  0  0  0  0  0  0
  3  1  1  0
  3  2  2  0
  4  3  1  0
  5  4  2  0
  6  5  1  0
  7  6  2  0
  7  2  1  0
  9  8  1  0
  9  2  1  0
 10  7  1  0
 11 10  1  0
 12  1  1  0
 13 12  1  0
 14 13  1  0
 15 14  1  0
 16 15  1  0
 17 16  1  0
 18 17  1  0
 19 18  1  0
 19 13  1  0
  1 20  1  0
  1 21  1  0
  4 22  1  0
  5 23  1  0
  6 24  1  0
  8 25  1  0
  8 26  1  0
  8 27  1  0
 11 28  1  0
 11 29  1  0
 11 30  1  0
 12 31  1  0
 12 32  1  0
 13 33  1  0
 14 34  1  0
 14 35  1  0
 15 36  1  0
 15 37  1  0
 16 38  1  0
 16 39  1  0
 17 40  1  0
 17 41  1  0
 18 42  1  0
 18 43  1  0
 19 44  1  0
 19 45  1  0
M  CHG  1  12   1
M  END
$$$$
=
     RDKit          3D

 28 28  0  0  0  0  0  0  0  0999 V2000
   18.3910   15.2460    4.0320 C   0  0  0  0  0  0  0  0  0  0  0  0
   19.1530   14.7390    3.2060 O   0  0  0  0  0  0  0  0  0  0  0  0
   16.9620   14.8780    3.9050 C   0  0  0  0  0  0  0  0  0  0  0  0
   16.0120   15.7500    4.4450 C   0  0  0  0  0  0  0  0  0  0  0  0
   14.6620   15.4170    4.3810 C   0  0  0  0  0  0  0  0  0  0  0  0
   14.2670   14.2200    3.7770 C   0  0  0  0  0  0  0  0  0  0  0  0
   15.2080   13.3590    3.2050 C   0  0  0  0  0  0  0  0  0  0  0  0
   16.5650   13.6700    3.3240 C   0  0  0  0  0  0  0  0  0  0  0  0
   14.8140   12.1060    2.7270 N   0  0  0  0  0  0  0  0  0  0  0  0
   18.8720   16.1690    5.1350 C   0  0  2  0  0  0  0  0  0  0  0  0
   20.2900   15.0810    6.3420 I   0  0  0  0  0  0  0  0  0  0  0  0
   17.5850   16.6570    6.2850 Cl  0  0  0  0  0  0  0  0  0  0  0  0
   19.5760   17.6660    4.4170 S   0  0  0  0  0  6  0  0  0  0  0  0
   19.3820   18.7720    5.3430 O   0  0  0  0  0  0  0  0  0  0  0  0
   19.0820   17.7980    3.0550 O   0  0  0  0  0  0  0  0  0  0  0  0
   22.1150   18.6880    4.5000 C   0  0  0  0  0  0  0  0  0  0  0  0
   21.3450   17.3970    4.2900 C   0  0  0  0  0  0  0  0  0  0  0  0
   16.3289   16.6918    4.9167 H   0  0  0  0  0  0  0  0  0  0  0  0
   13.9069   16.0951    4.8053 H   0  0  0  0  0  0  0  0  0  0  0  0
   13.2005   13.9517    3.7514 H   0  0  0  0  0  0  0  0  0  0  0  0
   17.3236   12.9619    2.9592 H   0  0  0  0  0  0  0  0  0  0  0  0
   15.5094   11.4735    2.3060 H   0  0  0  0  0  0  0  0  0  0  0  0
   13.8283   11.8152    2.7958 H   0  0  0  0  0  0  0  0  0  0  0  0
   22.2275   18.8766    5.5778 H   0  0  0  0  0  0  0  0  0  0  0  0
   23.1091   18.6014    4.0372 H   0  0  0  0  0  0  0  0  0  0  0  0
   21.5664   19.5216    4.0372 H   0  0  0  0  0  0  0  0  0  0  0  0
   21.6525   16.6679    5.0541 H   0  0  0  0  0  0  0  0  0  0  0  0
   21.5675   17.0199    3.2809 H   0  0  0  0  0  0  0  0  0  0  0  0
  2  1  2  0
  3  1  1  0
  4  3  2  0
  5  4  1  0
  6  5  2  0
  7  6  1  0
  8  7  2  0
  8  3  1  0
  9  7  1  0
 10  1  1  0
 11 10  1  0
 10 12  1  1
 13 10  1  0
 14 13  2  0
 15 13  2  0
 17 13  1  0
 17 16  1  0
  4 18  1  0
  5 19  1  0
  6 20  1  0
  8 21  1  0
  9 22  1  0
  9 23  1  0
 16 24  1  0
 16 25  1  0
 16 26  1  0
 17 27  1  0
 17 28  1  0
M  END
$$$$
=
     RDKit          3D

 38 40  0  0  0  0  0  0  0  0999 V2000
   19.1100   14.2300    4.6710 C   0  0  0  0  0  0  0  0  0  0  0  0
   18.6510   15.4690    4.0150 N   0  0  0  0  0  0  0  0  0  0  0  0
   19.5550   16.4740    3.6820 C   0  0  0  0  0  0  0  0  0  0  0  0
   19.6410   17.2650    2.5890 C   0  0  0  0  0  0  0  0  0  0  0  0
   20.6700   18.1950    2.5650 N   0  0  0  0  0  0  0  0  0  0  0  0
   21.3060   17.9960    3.6850 C   0  0  0  0  0  0  0  0  0  0  0  0
   20.6690   16.9210    4.4810 C   0  0  0  0  0  0  0  0  0  0  0  0
   21.2310   16.6820    5.6750 C   0  0  0  0  0  0  0  0  0  0  0  0
   22.3510   17.3330    6.1860 N   0  0  0  0  0  0  0  0  0  0  0  0
   22.8770   18.2510    5.4280 C   0  0  0  0  0  0  0  0  0  0  0  0
   22.4010   18.6130    4.2000 N   0  0  0  0  0  0  0  0  0  0  0  0
   17.1820   15.5730    3.8770 C   0  0  1  0  0  0  0  0  0  0  0  0
   16.5230   14.2290    3.4730 C   0  0  0  0  0  0  0  0  0  0  0  0
   15.0320   14.3570    3.5140 N   0  0  0  0  0  4  0  0  0  0  0  0
   14.4660   14.6470    4.8650 C   0  0  0  0  0  0  0  0  0  0  0  0
   15.4880   15.3060    5.7880 C   0  0  0  0  0  0  0  0  0  0  0  0
   16.4470   16.2630    5.0620 C   0  0  1  0  0  0  0  0  0  0  0  0
   17.3400   16.9980    6.0630 C   0  0  0  0  0  0  0  0  0  0  0  0
   19.0639   14.3545    5.7630 H   0  0  0  0  0  0  0  0  0  0  0  0
   18.4620   13.3938    4.3696 H   0  0  0  0  0  0  0  0  0  0  0  0
   20.1464   14.0178    4.3696 H   0  0  0  0  0  0  0  0  0  0  0  0
   18.9275   17.1752    1.7566 H   0  0  0  0  0  0  0  0  0  0  0  0
   20.7685   15.9067    6.3034 H   0  0  0  0  0  0  0  0  0  0  0  0
   23.7694   18.7731    5.8035 H   0  0  0  0  0  0  0  0  0  0  0  0
   22.8731   19.3549    3.6637 H   0  0  0  0  0  0  0  0  0  0  0  0
   17.0468   16.2705    3.0372 H   0  0  0  0  0  0  0  0  0  0  0  0
   16.8377   13.9609    2.4536 H   0  0  0  0  0  0  0  0  0  0  0  0
   16.8377   13.4461    4.1787 H   0  0  0  0  0  0  0  0  0  0  0  0
   14.7584   15.1220    2.8809 H   0  0  0  0  0  0  0  0  0  0  0  0
   14.6542   13.4414    3.2315 H   0  0  0  0  0  0  0  0  0  0  0  0
   13.6046   15.3215    4.7511 H   0  0  0  0  0  0  0  0  0  0  0  0
   14.1676   13.6905    5.3190 H   0  0  0  0  0  0  0  0  0  0  0  0
   14.9455   15.8750    6.5574 H   0  0  0  0  0  0  0  0  0  0  0  0
   16.1011   14.5000    6.2176 H   0  0  0  0  0  0  0  0  0  0  0  0
   15.8630   17.0540    4.5688 H   0  0  0  0  0  0  0  0  0  0  0  0
   17.0300   16.7429    7.0871 H   0  0  0  0  0  0  0  0  0  0  0  0
   18.3868   16.6964    5.9109 H   0  0  0  0  0  0  0  0  0  0  0  0
   17.2453   18.0833    5.9109 H   0  0  0  0  0  0  0  0  0  0  0  0
  2  1  1  0
  3  2  1  0
  4  3  2  0
  5  4  1  0
  6  5  2  0
  7  6  1  0
  7  3  1  0
  8  7  2  0
  9  8  1  0
 10  9  2  0
 11  6  1  0
 11 10  1  0
 12  2  1  0
 13 12  1  0
 14 13  1  0
 15 14  1  0
 16 15  1  0
 17 16  1  0
 17 12  1  0
 18 17  1  0
  1 19  1  0
  1 20  1  0
  1 21  1  0
  4 22  1  0
  8 23  1  0
 10 24  1  0
 11 25  1  0
 12 26  1  6
 13 27  1  0
 13 28  1  0
 14 29  1  0
 14 30  1  0
 15 31  1  0
 15 32  1  0
 16 33  1  0
 16 34  1  0
 17 35  1  6
 18 36  1  0
 18 37  1  0
 18 38  1  0
M  CHG  1  14   1
M  END
$$$$
=
     RDKit          3D

 32 33  0  0  0  0  0  0  0  0999 V2000
   17.3390   15.5290    3.6510 C   0  0  1  0  0  0  0  0  0  0  0  0
   15.8590   15.6550    4.0320 C   0  0  0  0  0  0  0  0  0  0  0  0
   15.6010   15.3970    5.5150 C   0  0  0  0  0  0  0  0  0  0  0  0
   16.7760   15.7960    6.4030 C   0  0  0  0  0  0  0  0  0  0  0  0
   17.6470   16.8770    5.7710 C   0  0  0  0  0  0  0  0  0  0  0  0
   18.1610   16.4570    4.4630 N   0  0  0  0  0  0  0  0  0  0  0  0
   19.2380   17.1230    3.8820 C   0  0  0  0  0  0  0  0  0  0  0  0
   19.4150   17.2240    2.4950 C   0  0  0  0  0  0  0  0  0  0  0  0
   20.4370   17.8530    1.8610 N   0  0  0  0  0  0  0  0  0  0  0  0
   21.3670   18.4190    2.6580 C   0  0  0  0  0  0  0  0  0  0  0  0
   21.3050   18.4390    4.0460 C   0  0  0  0  0  0  0  0  0  0  0  0
   20.2500   17.7340    4.6400 C   0  0  0  0  0  0  0  0  0  0  0  0
   22.3530   18.9430    4.8270 N   0  0  0  0  0  0  0  0  0  0  0  0
   17.0140   13.1420    3.1130 N   0  0  0  0  0  0  0  0  0  0  0  0
   17.8080   14.0570    3.7580 C   0  0  0  0  0  0  0  0  0  0  0  0
   18.7980   13.6650    4.3690 O   0  0  0  0  0  0  0  0  0  0  0  0
   17.4698   15.8233    2.5992 H   0  0  0  0  0  0  0  0  0  0  0  0
   15.5198   16.6728    3.7890 H   0  0  0  0  0  0  0  0  0  0  0  0
   15.3067   14.8918    3.4641 H   0  0  0  0  0  0  0  0  0  0  0  0
   14.7171   15.9749    5.8227 H   0  0  0  0  0  0  0  0  0  0  0  0
   15.4477   14.3148    5.6388 H   0  0  0  0  0  0  0  0  0  0  0  0
   16.3833   16.1737    7.3586 H   0  0  0  0  0  0  0  0  0  0  0  0
   17.4033   14.9040    6.5469 H   0  0  0  0  0  0  0  0  0  0  0  0
   17.0468   17.7899    5.6428 H   0  0  0  0  0  0  0  0  0  0  0  0
   18.5040   17.0617    6.4354 H   0  0  0  0  0  0  0  0  0  0  0  0
   18.6531   16.7482    1.8601 H   0  0  0  0  0  0  0  0  0  0  0  0
   22.2328   18.8969    2.1764 H   0  0  0  0  0  0  0  0  0  0  0  0
   20.2132   17.6565    5.7366 H   0  0  0  0  0  0  0  0  0  0  0  0
   22.2757   18.9435    5.8541 H   0  0  0  0  0  0  0  0  0  0  0  0
   23.2009   19.3131    4.3742 H   0  0  0  0  0  0  0  0  0  0  0  0
   17.2577   12.1415    3.1365 H   0  0  0  0  0  0  0  0  0  0  0  0
   16.1745   13.4558    2.6055 H   0  0  0  0  0  0  0  0  0  0  0  0
  2  1  1  0
  3  2  1  0
  4  3  1  0
  5  4  1  0
  6  1  1  0
  6  5  1  0
  7  6  1  0
  8  7  2  0
  9  8  1  0
 10  9  2  0
 11 10  1  0
 12 11  2  0
 12  7  1  0
 13 11  1  0
 15 14  1  0
 15  1  1  0
 16 15  2  0
  1 17  1  6
  2 18  1  0
  2 19  1  0
  3 20  1  0
  3 21  1  0
  4 22  1  0
  4 23  1  0
  5 24  1  0
  5 25  1  0
  8 26  1  0
 10 27  1  0
 12 28  1  0
 13 29  1  0
 13 30  1  0
 14 31  1  0
 14 32  1  0
M  END
$$$$
=
     RDKit          3D

 32 34  0  0  0  0  0  0  0  0999 V2000
   15.6340   13.6940    3.2340 C   0  0  1  0  0  0  0  0  0  0  0  0
   14.3820   14.1250    4.0140 C   0  0  0  0  0  0  0  0  0  0  0  0
   14.3320   15.6420    4.1740 C   0  0  0  0  0  0  0  0  0  0  0  0
   15.5390   16.1170    4.9790 C   0  0  0  0  0  0  0  0  0  0  0  0
   16.8350   15.5650    4.4440 C   0  0  0  0  0  0  0  0  0  0  0  0
   16.8740   14.4300    3.6460 C   0  0  0  0  0  0  0  0  0  0  0  0
   18.1330   14.0880    3.1940 C   0  0  0  0  0  0  0  0  0  0  0  0
   19.2610   14.7290    3.5400 N   0  0  0  0  0  0  0  0  0  0  0  0
   19.1340   15.7950    4.3520 C   0  0  0  0  0  0  0  0  0  0  0  0
   17.9470   16.2300    4.8150 N   0  0  0  0  0  0  0  0  0  0  0  0
   20.3510   16.5200    4.7550 C   0  0  0  0  0  0  0  0  0  0  0  0
   21.1160   16.1120    5.8590 C   0  0  0  0  0  0  0  0  0  0  0  0
   22.2530   16.8280    6.2010 C   0  0  0  0  0  0  0  0  0  0  0  0
   22.6810   17.9160    5.5310 N   0  0  0  0  0  0  0  0  0  0  0  0
   21.9460   18.3030    4.4720 C   0  0  0  0  0  0  0  0  0  0  0  0
   20.7960   17.6500    4.0540 C   0  0  0  0  0  0  0  0  0  0  0  0
   15.7460   12.2130    3.3940 N   0  0  0  0  0  4  0  0  0  0  0  0
   15.5299   13.9572    2.1710 H   0  0  0  0  0  0  0  0  0  0  0  0
   13.4864   13.7911    3.4695 H   0  0  0  0  0  0  0  0  0  0  0  0
   14.4179   13.6683    5.0141 H   0  0  0  0  0  0  0  0  0  0  0  0
   14.3465   16.1147    3.1808 H   0  0  0  0  0  0  0  0  0  0  0  0
   13.4093   15.9212    4.7038 H   0  0  0  0  0  0  0  0  0  0  0  0
   15.5797   17.2156    4.9410 H   0  0  0  0  0  0  0  0  0  0  0  0
   15.4192   15.7555    6.0110 H   0  0  0  0  0  0  0  0  0  0  0  0
   18.2175   13.2345    2.5053 H   0  0  0  0  0  0  0  0  0  0  0  0
   20.8162   15.2323    6.4474 H   0  0  0  0  0  0  0  0  0  0  0  0
   22.8387   16.4888    7.0681 H   0  0  0  0  0  0  0  0  0  0  0  0
   22.2759   19.1868    3.9062 H   0  0  0  0  0  0  0  0  0  0  0  0
   20.2375   18.0156    3.1797 H   0  0  0  0  0  0  0  0  0  0  0  0
   15.7639   11.9763    4.3963 H   0  0  0  0  0  0  0  0  0  0  0  0
   14.9371   11.7573    2.9480 H   0  0  0  0  0  0  0  0  0  0  0  0
   16.6143   11.8842    2.9480 H   0  0  0  0  0  0  0  0  0  0  0  0
  2  1  1  0
  3  2  1  0
  4  3  1  0
  5  4  1  0
  6  1  1  0
  6  5  2  0
  7  6  1  0
  8  7  2  0
  9  8  1  0
 10  9  2  0
 10  5  1  0
 11  9  1  0
 12 11  2  0
 13 12  1  0
 14 13  2  0
 15 14  1  0
 16 11  1  0
 16 15  2  0
 17  1  1  0
  1 18  1  6
  2 19  1  0
  2 20  1  0
  3 21  1  0
  3 22  1  0
  4 23  1  0
  4 24  1  0
  7 25  1  0
 12 26  1  0
 13 27  1  0
 15 28  1  0
 16 29  1  0
 17 30  1  0
 17 31  1  0
 17 32  1  0
M  CHG  1  17   1
M  END
$$$$
=
     RDKit          3D

 42 44  0  0  0  0  0  0  0  0999 V2000
   18.2890   17.1290    5.7260 C   0  0  0  0  0  0  0  0  0  0  0  0
   19.6310   16.4170    5.4710 C   0  0  1  0  0  0  0  0  0  0  0  0
   20.8350   17.2530    5.9330 C   0  0  0  0  0  0  0  0  0  0  0  0
   21.9680   16.2440    6.1140 C   0  0  0  0  0  0  0  0  0  0  0  0
   21.2860   14.9270    6.3200 N   0  0  0  0  0  4  0  0  0  0  0  0
   19.8030   15.1660    6.3350 C   0  0  0  0  0  0  0  0  0  0  0  0
   20.0970   17.0370    3.1160 N   0  0  0  0  0  0  0  0  0  0  0  0
   19.8420   16.0400    4.0030 C   0  0  0  0  0  0  0  0  0  0  0  0
   19.9220   14.8640    3.6500 O   0  0  0  0  0  0  0  0  0  0  0  0
   17.0790   16.3350    5.2880 C   0  0  0  0  0  0  0  0  0  0  0  0
   16.8220   16.1370    3.9250 C   0  0  0  0  0  0  0  0  0  0  0  0
   15.6890   15.4290    3.5100 C   0  0  0  0  0  0  0  0  0  0  0  0
   14.7860   14.8940    4.4410 C   0  0  0  0  0  0  0  0  0  0  0  0
   15.0600   15.0870    5.8030 C   0  0  0  0  0  0  0  0  0  0  0  0
   16.1910   15.7940    6.2240 C   0  0  0  0  0  0  0  0  0  0  0  0
   13.5970   14.1450    4.0010 C   0  0  0  0  0  0  0  0  0  0  0  0
   13.7190   12.9920    3.2090 C   0  0  0  0  0  0  0  0  0  0  0  0
   12.5890   12.2820    2.7910 C   0  0  0  0  0  0  0  0  0  0  0  0
   11.3180   12.7140    3.1600 C   0  0  0  0  0  0  0  0  0  0  0  0
   11.1750   13.8540    3.9460 C   0  0  0  0  0  0  0  0  0  0  0  0
   12.3050   14.5640    4.3610 C   0  0  0  0  0  0  0  0  0  0  0  0
   18.2015   17.3262    6.8046 H   0  0  0  0  0  0  0  0  0  0  0  0
   18.2988   18.0512    5.1264 H   0  0  0  0  0  0  0  0  0  0  0  0
   21.1012   18.0015    5.1722 H   0  0  0  0  0  0  0  0  0  0  0  0
   20.6230   17.8080    6.8587 H   0  0  0  0  0  0  0  0  0  0  0  0
   22.6050   16.2133    5.2178 H   0  0  0  0  0  0  0  0  0  0  0  0
   22.6233   16.5060    6.9578 H   0  0  0  0  0  0  0  0  0  0  0  0
   21.5282   14.2846    5.5522 H   0  0  0  0  0  0  0  0  0  0  0  0
   21.5881   14.5043    7.2093 H   0  0  0  0  0  0  0  0  0  0  0  0
   19.2632   14.3116    5.9008 H   0  0  0  0  0  0  0  0  0  0  0  0
   19.4005   15.2899    7.3512 H   0  0  0  0  0  0  0  0  0  0  0  0
   20.2436   16.8159    2.1208 H   0  0  0  0  0  0  0  0  0  0  0  0
   20.1437   18.0140    3.4388 H   0  0  0  0  0  0  0  0  0  0  0  0
   17.5171   16.5418    3.1747 H   0  0  0  0  0  0  0  0  0  0  0  0
   15.5029   15.2893    2.4349 H   0  0  0  0  0  0  0  0  0  0  0  0
   14.3716   14.6741    6.5551 H   0  0  0  0  0  0  0  0  0  0  0  0
   16.3837   15.9256    7.2990 H   0  0  0  0  0  0  0  0  0  0  0  0
   14.7188   12.6418    2.9128 H   0  0  0  0  0  0  0  0  0  0  0  0
   12.7045   11.3814    2.1701 H   0  0  0  0  0  0  0  0  0  0  0  0
   10.4289   12.1559    2.8313 H   0  0  0  0  0  0  0  0  0  0  0  0
   10.1720   14.1962    4.2406 H   0  0  0  0  0  0  0  0  0  0  0  0
   12.1810   15.4653    4.9794 H   0  0  0  0  0  0  0  0  0  0  0  0
  2  1  1  0
  3  2  1  0
  4  3  1  0
  5  4  1  0
  6  5  1  0
  6  2  1  0
  8  7  1  0
  2  8  1  6
  9  8  2  0
 10  1  1  0
 11 10  2  0
 12 11  1  0
 13 12  2  0
 14 13  1  0
 15 14  2  0
 15 10  1  0
 16 13  1  0
 17 16  2  0
 18 17  1  0
 19 18  2  0
 20 19  1  0
 21 20  2  0
 21 16  1  0
  1 22  1  0
  1 23  1  0
  3 24  1  0
  3 25  1  0
  4 26  1  0
  4 27  1  0
  5 28  1  0
  5 29  1  0
  6 30  1  0
  6 31  1  0
  7 32  1  0
  7 33  1  0
 11 34  1  0
 12 35  1  0
 14 36  1  0
 15 37  1  0
 17 38  1  0
 18 39  1  0
 19 40  1  0
 20 41  1  0
 21 42  1  0
M  CHG  1   5   1
M  END
$$$$
=
     RDKit          3D

 51 53  0  0  0  0  0  0  0  0999 V2000
   15.7290   14.8480    4.3050 C   0  0  0  0  0  0  0  0  0  0  0  0
   14.4910   14.1880    4.3600 C   0  0  0  0  0  0  0  0  0  0  0  0
   14.2360   13.0400    3.6000 C   0  0  0  0  0  0  0  0  0  0  0  0
   15.2510   12.5480    2.7780 C   0  0  0  0  0  0  0  0  0  0  0  0
   16.4900   13.1950    2.7190 C   0  0  0  0  0  0  0  0  0  0  0  0
   16.7440   14.3480    3.4740 C   0  0  0  0  0  0  0  0  0  0  0  0
   16.2840   15.7830    6.4500 C   0  0  0  0  0  0  0  0  0  0  0  0
   15.7590   15.9370    5.1350 O   0  0  0  0  0  0  0  0  0  0  0  0
   12.9230   12.3240    3.7300 C   0  0  0  0  0  0  0  0  0  0  0  0
   11.9290   12.8630    2.7570 N   0  0  0  0  0  4  0  0  0  0  0  0
   10.9210   11.8970    2.2280 C   0  0  0  0  0  0  0  0  0  0  0  0
    9.4760   12.2520    2.6000 C   0  0  0  0  0  0  0  0  0  0  0  0
    9.2830   13.9110    3.3400 S   0  0  0  0  0  0  0  0  0  0  0  0
    9.4820   13.5890    5.0170 C   0  0  0  0  0  0  0  0  0  0  0  0
   10.5520   13.8590    5.7300 N   0  0  0  0  0  0  0  0  0  0  0  0
   10.2500   13.4740    7.0120 N   0  0  0  0  0  0  0  0  0  0  0  0
    9.0200   12.9850    7.0850 N   0  0  0  0  0  0  0  0  0  0  0  0
    8.5290   13.0550    5.8340 N   0  0  0  0  0  0  0  0  0  0  0  0
    7.1950   12.6090    5.5380 C   0  0  0  0  0  0  0  0  0  0  0  0
   17.9520   14.9830    3.4780 O   0  0  0  0  0  0  0  0  0  0  0  0
   18.9720   14.5050    4.3540 C   0  0  0  0  0  0  0  0  0  0  0  0
   19.7290   15.7060    4.8610 C   0  0  0  0  0  0  0  0  0  0  0  0
   19.2920   17.0030    4.5560 C   0  0  0  0  0  0  0  0  0  0  0  0
   20.0040   18.1150    5.0090 C   0  0  0  0  0  0  0  0  0  0  0  0
   21.1650   17.9410    5.7630 C   0  0  0  0  0  0  0  0  0  0  0  0
   21.6160   16.6570    6.0590 C   0  0  0  0  0  0  0  0  0  0  0  0
   20.9050   15.5440    5.6080 C   0  0  0  0  0  0  0  0  0  0  0  0
   13.7016   14.5827    5.0166 H   0  0  0  0  0  0  0  0  0  0  0  0
   15.0757   11.6462    2.1730 H   0  0  0  0  0  0  0  0  0  0  0  0
   17.2794   12.7912    2.0680 H   0  0  0  0  0  0  0  0  0  0  0  0
   15.5003   16.0129    7.1869 H   0  0  0  0  0  0  0  0  0  0  0  0
   16.6258   14.7468    6.5893 H   0  0  0  0  0  0  0  0  0  0  0  0
   17.1314   16.4704    6.5893 H   0  0  0  0  0  0  0  0  0  0  0  0
   13.0753   11.2524    3.5341 H   0  0  0  0  0  0  0  0  0  0  0  0
   12.5376   12.4751    4.7491 H   0  0  0  0  0  0  0  0  0  0  0  0
   11.4168   13.6253    3.2232 H   0  0  0  0  0  0  0  0  0  0  0  0
   12.4811   13.1556    1.9382 H   0  0  0  0  0  0  0  0  0  0  0  0
   11.0024   11.8752    1.1312 H   0  0  0  0  0  0  0  0  0  0  0  0
   11.1406   10.9200    2.6833 H   0  0  0  0  0  0  0  0  0  0  0  0
    8.8633   12.2073    1.6875 H   0  0  0  0  0  0  0  0  0  0  0  0
    9.1568   11.5256    3.3618 H   0  0  0  0  0  0  0  0  0  0  0  0
    6.6522   12.4275    6.4774 H   0  0  0  0  0  0  0  0  0  0  0  0
    6.6712   13.3809    4.9551 H   0  0  0  0  0  0  0  0  0  0  0  0
    7.2408   11.6773    4.9551 H   0  0  0  0  0  0  0  0  0  0  0  0
   18.5197   13.9621    5.1970 H   0  0  0  0  0  0  0  0  0  0  0  0
   19.6464   13.8151    3.8255 H   0  0  0  0  0  0  0  0  0  0  0  0
   18.3815   17.1453    3.9554 H   0  0  0  0  0  0  0  0  0  0  0  0
   19.6496   19.1289    4.7714 H   0  0  0  0  0  0  0  0  0  0  0  0
   21.7237   18.8173    6.1234 H   0  0  0  0  0  0  0  0  0  0  0  0
   22.5341   16.5199    6.6492 H   0  0  0  0  0  0  0  0  0  0  0  0
   21.2695   14.5324    5.8400 H   0  0  0  0  0  0  0  0  0  0  0  0
  2  1  2  0
  3  2  1  0
  4  3  2  0
  5  4  1  0
  6  1  1  0
  6  5  2  0
  8  1  1  0
  8  7  1  0
  9  3  1  0
 10  9  1  0
 11 10  1  0
 12 11  1  0
 13 12  1  0
 14 13  1  0
 15 14  2  0
 16 15  1  0
 17 16  2  0
 18 14  1  0
 18 17  1  0
 19 18  1  0
 20  6  1  0
 21 20  1  0
 22 21  1  0
 23 22  2  0
 24 23  1  0
 25 24  2  0
 26 25  1  0
 27 22  1  0
 27 26  2  0
  2 28  1  0
  4 29  1  0
  5 30  1  0
  7 31  1  0
  7 32  1  0
  7 33  1  0
  9 34  1  0
  9 35  1  0
 10 36  1  0
 10 37  1  0
 11 38  1  0
 11 39  1  0
 12 40  1  0
 12 41  1  0
 19 42  1  0
 19 43  1  0
 19 44  1  0
 21 45  1  0
 21 46  1  0
 23 47  1  0
 24 48  1  0
 25 49  1  0
 26 50  1  0
 27 51  1  0
M  CHG  1  10   1
M  END
$$$$
=
     RDKit          3D

 34 34  0  0  0  0  0  0  0  0999 V2000
   15.8760   15.2250    4.3230 N   0  0  0  0  0  0  0  0  0  0  0  0
   14.6890   14.6060    4.2740 N   0  0  0  0  0  0  0  0  0  0  0  0
   14.8950   13.5200    3.5270 C   0  0  0  0  0  0  0  0  0  0  0  0
   16.2380   13.4440    3.1000 C   0  0  0  0  0  0  0  0  0  0  0  0
   16.8640   14.5580    3.6330 C   0  0  0  0  0  0  0  0  0  0  0  0
   13.7780   12.5850    3.2450 C   0  0  0  0  0  0  0  0  0  0  0  0
   15.9660   16.4750    5.0640 C   0  0  0  0  0  0  0  0  0  0  0  0
   16.3540   15.2140    7.2050 C   0  0  0  0  0  0  0  0  0  0  0  0
   16.8400   16.3390    6.3080 C   0  0  0  0  0  0  0  0  0  0  0  0
   18.2540   15.0560    3.5510 C   0  0  0  0  0  0  0  0  0  0  0  0
   19.1340   14.4040    4.5460 N   0  0  0  0  0  4  0  0  0  0  0  0
   20.2180   15.2530    5.1380 C   0  0  0  0  0  0  0  0  0  0  0  0
   20.4300   14.8230    6.5910 C   0  0  0  0  0  0  0  0  0  0  0  0
   21.5100   15.6030    7.1160 O   0  0  0  0  0  0  0  0  0  0  0  0
   16.6928   12.6623    2.4739 H   0  0  0  0  0  0  0  0  0  0  0  0
   13.3508   12.2274    4.1935 H   0  0  0  0  0  0  0  0  0  0  0  0
   13.0010   13.1059    2.6662 H   0  0  0  0  0  0  0  0  0  0  0  0
   14.1540   11.7285    2.6662 H   0  0  0  0  0  0  0  0  0  0  0  0
   16.3976   17.2462    4.4090 H   0  0  0  0  0  0  0  0  0  0  0  0
   14.9522   16.7518    5.3889 H   0  0  0  0  0  0  0  0  0  0  0  0
   16.4796   15.5047    8.2584 H   0  0  0  0  0  0  0  0  0  0  0  0
   15.2907   15.0174    7.0031 H   0  0  0  0  0  0  0  0  0  0  0  0
   16.9397   14.3050    7.0031 H   0  0  0  0  0  0  0  0  0  0  0  0
   17.8741   16.1284    5.9978 H   0  0  0  0  0  0  0  0  0  0  0  0
   16.7869   17.2809    6.8736 H   0  0  0  0  0  0  0  0  0  0  0  0
   18.6454   14.8532    2.5432 H   0  0  0  0  0  0  0  0  0  0  0  0
   18.2421   16.1354    3.7623 H   0  0  0  0  0  0  0  0  0  0  0  0
   18.5399   14.0712    5.3188 H   0  0  0  0  0  0  0  0  0  0  0  0
   19.6227   13.6582    4.0305 H   0  0  0  0  0  0  0  0  0  0  0  0
   21.1499   15.1148    4.5701 H   0  0  0  0  0  0  0  0  0  0  0  0
   19.9318   16.3143    5.0962 H   0  0  0  0  0  0  0  0  0  0  0  0
   19.5157   15.0063    7.1744 H   0  0  0  0  0  0  0  0  0  0  0  0
   20.6631   13.7495    6.6479 H   0  0  0  0  0  0  0  0  0  0  0  0
   21.4815   15.5824    8.1054 H   0  0  0  0  0  0  0  0  0  0  0  0
  2  1  1  0
  3  2  2  0
  4  3  1  0
  5  4  2  0
  5  1  1  0
  6  3  1  0
  7  1  1  0
  9  7  1  0
  9  8  1  0
 10  5  1  0
 11 10  1  0
 12 11  1  0
 13 12  1  0
 14 13  1  0
  4 15  1  0
  6 16  1  0
  6 17  1  0
  6 18  1  0
  7 19  1  0
  7 20  1  0
  8 21  1  0
  8 22  1  0
  8 23  1  0
  9 24  1  0
  9 25  1  0
 10 26  1  0
 10 27  1  0
 11 28  1  0
 11 29  1  0
 12 30  1  0
 12 31  1  0
 13 32  1  0
 13 33  1  0
 14 34  1  0
M  CHG  1  11   1
M  END
$$$$
=
     RDKit          3D

 30 30  0  0  0  0  0  0  0  0999 V2000
   19.2260   14.9440    4.6240 C   0  0  0  0  0  0  0  0  0  0  0  0
   19.5410   14.5890    5.9450 C   0  0  0  0  0  0  0  0  0  0  0  0
   20.6020   15.2060    6.6140 C   0  0  0  0  0  0  0  0  0  0  0  0
   21.3590   16.1830    5.9730 C   0  0  0  0  0  0  0  0  0  0  0  0
   21.0530   16.5360    4.6540 C   0  0  0  0  0  0  0  0  0  0  0  0
   20.0020   15.9200    3.9730 C   0  0  0  0  0  0  0  0  0  0  0  0
   19.6160   16.2240    2.6880 O   0  0  0  0  0  0  0  0  0  0  0  0
   19.7180   17.6020    2.3120 C   0  0  0  0  0  0  0  0  0  0  0  0
   22.4110   16.8680    6.5130 O   0  0  0  0  0  0  0  0  0  0  0  0
   22.8650   18.0220    5.8150 C   0  0  0  0  0  0  0  0  0  0  0  0
   18.0890   14.2600    3.9170 C   0  0  0  0  0  0  0  0  0  0  0  0
   16.9380   15.1710    3.6210 N   0  0  0  0  0  4  0  0  0  0  0  0
   15.5870   14.5190    3.4970 C   0  0  0  0  0  0  0  0  0  0  0  0
   15.6900   12.1480    2.3770 N   0  0  0  0  0  0  0  0  0  0  0  0
   15.6830   13.2110    2.8370 C   0  0  0  0  0  0  0  0  0  0  0  0
   18.9475   13.8182    6.4585 H   0  0  0  0  0  0  0  0  0  0  0  0
   20.8393   14.9190    7.6490 H   0  0  0  0  0  0  0  0  0  0  0  0
   21.6488   17.3094    4.1471 H   0  0  0  0  0  0  0  0  0  0  0  0
   19.7642   18.2264    3.2164 H   0  0  0  0  0  0  0  0  0  0  0  0
   20.6298   17.7528    1.7154 H   0  0  0  0  0  0  0  0  0  0  0  0
   18.8384   17.8854    1.7154 H   0  0  0  0  0  0  0  0  0  0  0  0
   23.1682   18.7927    6.5389 H   0  0  0  0  0  0  0  0  0  0  0  0
   23.7247   17.7538    5.1833 H   0  0  0  0  0  0  0  0  0  0  0  0
   22.0531   18.4115    5.1833 H   0  0  0  0  0  0  0  0  0  0  0  0
   18.4642   13.8523    2.9667 H   0  0  0  0  0  0  0  0  0  0  0  0
   17.7156   13.4731    4.5888 H   0  0  0  0  0  0  0  0  0  0  0  0
   16.8833   15.8646    4.3804 H   0  0  0  0  0  0  0  0  0  0  0  0
   17.1361   15.5716    2.6930 H   0  0  0  0  0  0  0  0  0  0  0  0
   15.1617   14.3825    4.5022 H   0  0  0  0  0  0  0  0  0  0  0  0
   14.9432   15.1690    2.8862 H   0  0  0  0  0  0  0  0  0  0  0  0
  2  1  2  0
  3  2  1  0
  4  3  2  0
  5  4  1  0
  6  1  1  0
  6  5  2  0
  7  6  1  0
  8  7  1  0
  9  4  1  0
 10  9  1  0
 11  1  1  0
 12 11  1  0
 13 12  1  0
 15 14  3  0
 15 13  1  0
  2 16  1  0
  3 17  1  0
  5 18  1  0
  8 19  1  0
  8 20  1  0
  8 21  1  0
 10 22  1  0
 10 23  1  0
 10 24  1  0
 11 25  1  0
 11 26  1  0
 12 27  1  0
 12 28  1  0
 13 29  1  0
 13 30  1  0
M  CHG  1  12   1
M  END
$$$$
=
     RDKit          3D

 29 31  0  0  0  0  0  0  0  0999 V2000
   21.3150   17.1330    5.0870 C   0  0  0  0  0  0  0  0  0  0  0  0
   21.5080   18.0580    4.0550 C   0  0  0  0  0  0  0  0  0  0  0  0
   20.7020   18.0470    2.9230 C   0  0  0  0  0  0  0  0  0  0  0  0
   19.7020   17.0880    2.8020 C   0  0  0  0  0  0  0  0  0  0  0  0
   19.5110   16.1050    3.7940 C   0  0  0  0  0  0  0  0  0  0  0  0
   20.3640   16.0970    4.9320 C   0  0  0  0  0  0  0  0  0  0  0  0
   20.2310   15.0140    5.9780 C   0  0  0  0  0  0  0  0  0  0  0  0
   18.4250   15.1320    3.6220 C   0  0  0  0  0  0  0  0  0  0  0  0
   18.7840   13.8760    3.2080 O   0  0  0  0  0  0  0  0  0  0  0  0
   17.6090   13.1310    3.1080 N   0  0  0  0  0  0  0  0  0  0  0  0
   16.6610   14.0060    3.4710 C   0  0  0  0  0  0  0  0  0  0  0  0
   17.1290   15.2540    3.7970 N   0  0  0  0  0  0  0  0  0  0  0  0
   15.1450   13.6390    3.5260 C   0  0  0  0  0  0  0  0  0  0  0  0
   14.5800   12.4520    3.0980 C   0  0  0  0  0  0  0  0  0  0  0  0
   13.1870   12.5520    3.3340 C   0  0  0  0  0  0  0  0  0  0  0  0
   12.9850   13.7930    3.8900 C   0  0  0  0  0  0  0  0  0  0  0  0
   14.1620   14.4570    4.0110 O   0  0  0  0  0  0  0  0  0  0  0  0
   22.2370   17.1710    6.1520 N   0  0  0  0  0  0  0  0  0  0  0  0
   22.3103   18.8056    4.1411 H   0  0  0  0  0  0  0  0  0  0  0  0
   20.8539   18.7918    2.1279 H   0  0  0  0  0  0  0  0  0  0  0  0
   19.0489   17.0968    1.9169 H   0  0  0  0  0  0  0  0  0  0  0  0
   20.2862   15.4636    6.9804 H   0  0  0  0  0  0  0  0  0  0  0  0
   19.2635   14.5046    5.8574 H   0  0  0  0  0  0  0  0  0  0  0  0
   21.0464   14.2856    5.8574 H   0  0  0  0  0  0  0  0  0  0  0  0
   15.1105   11.5944    2.6585 H   0  0  0  0  0  0  0  0  0  0  0  0
   12.4225   11.7916    3.1167 H   0  0  0  0  0  0  0  0  0  0  0  0
   12.0060   14.1918    4.1942 H   0  0  0  0  0  0  0  0  0  0  0  0
   22.1427   16.5127    6.9386 H   0  0  0  0  0  0  0  0  0  0  0  0
   23.0052   17.8570    6.1439 H   0  0  0  0  0  0  0  0  0  0  0  0
  2  1  2  0
  3  2  1  0
  4  3  2  0
  5  4  1  0
  6  5  2  0
  6  1  1  0
  7  6  1  0
  8  5  1  0
  9  8  1  0
 10  9  1  0
 11 10  2  0
 12 11  1  0
 12  8  2  0
 13 11  1  0
 14 13  2  0
 15 14  1  0
 16 15  2  0
 17 16  1  0
 17 13  1  0
 18  1  1  0
  2 19  1  0
  3 20  1  0
  4 21  1  0
  7 22  1  0
  7 23  1  0
  7 24  1  0
 14 25  1  0
 15 26  1  0
 16 27  1  0
 18 28  1  0
 18 29  1  0
M  END
$$$$
=
     RDKit          3D

 31 32  0  0  0  0  0  0  0  0999 V2000
   20.2270   15.3790    4.3070 C   0  0  0  0  0  0  0  0  0  0  0  0
   19.0820   16.1160    3.5500 C   0  0  0  0  0  0  0  0  0  0  0  0
   18.2010   15.0100    3.9420 N   0  0  0  0  0  4  0  0  0  0  0  0
   19.0620   14.7270    5.1020 C   0  0  0  0  0  0  0  0  0  0  0  0
   21.2110   16.2720    5.0360 C   0  0  0  0  0  0  0  0  0  0  0  0
   21.8290   15.6560    6.2460 N   0  0  0  0  0  4  0  0  0  0  0  0
   16.8350   15.4750    4.3370 C   0  0  0  0  0  0  0  0  0  0  0  0
   15.7730   14.5170    3.8740 C   0  0  0  0  0  0  0  0  0  0  0  0
   16.1080   13.4330    3.0460 C   0  0  0  0  0  0  0  0  0  0  0  0
   15.1290   12.5230    2.6460 C   0  0  0  0  0  0  0  0  0  0  0  0
   13.8110   12.6830    3.0660 C   0  0  0  0  0  0  0  0  0  0  0  0
   13.4660   13.7580    3.8830 C   0  0  0  0  0  0  0  0  0  0  0  0
   14.4400   14.6720    4.2860 C   0  0  0  0  0  0  0  0  0  0  0  0
   21.0128   14.7746    3.8304 H   0  0  0  0  0  0  0  0  0  0  0  0
   18.8073   17.0937    3.9726 H   0  0  0  0  0  0  0  0  0  0  0  0
   19.1884   16.4279    2.5005 H   0  0  0  0  0  0  0  0  0  0  0  0
   17.9682   14.2641    3.2709 H   0  0  0  0  0  0  0  0  0  0  0  0
   18.7807   15.2585    6.0231 H   0  0  0  0  0  0  0  0  0  0  0  0
   19.1458   13.7166    5.5286 H   0  0  0  0  0  0  0  0  0  0  0  0
   22.0171   16.5375    4.3363 H   0  0  0  0  0  0  0  0  0  0  0  0
   20.6401   17.1443    5.3869 H   0  0  0  0  0  0  0  0  0  0  0  0
   21.4134   16.0703    7.0925 H   0  0  0  0  0  0  0  0  0  0  0  0
   21.6565   14.6406    6.2405 H   0  0  0  0  0  0  0  0  0  0  0  0
   22.8439   15.8318    6.2405 H   0  0  0  0  0  0  0  0  0  0  0  0
   16.7885   15.5582    5.4329 H   0  0  0  0  0  0  0  0  0  0  0  0
   16.6513   16.4503    3.8627 H   0  0  0  0  0  0  0  0  0  0  0  0
   17.1475   13.3009    2.7112 H   0  0  0  0  0  0  0  0  0  0  0  0
   15.3990   11.6768    1.9971 H   0  0  0  0  0  0  0  0  0  0  0  0
   13.0424   11.9610    2.7530 H   0  0  0  0  0  0  0  0  0  0  0  0
   12.4238   13.8861    4.2107 H   0  0  0  0  0  0  0  0  0  0  0  0
   14.1618   15.5190    4.9303 H   0  0  0  0  0  0  0  0  0  0  0  0
  2  1  1  0
  3  2  1  0
  4  3  1  0
  4  1  1  0
  5  1  1  0
  6  5  1  0
  7  3  1  0
  8  7  1  0
  9  8  2  0
 10  9  1  0
 11 10  2  0
 12 11  1  0
 13 12  2  0
 13  8  1  0
  1 14  1  0
  2 15  1  0
  2 16  1  0
  3 17  1  0
  4 18  1  0
  4 19  1  0
  5 20  1  0
  5 21  1  0
  6 22  1  0
  6 23  1  0
  6 24  1  0
  7 25  1  0
  7 26  1  0
  9 27  1  0
 10 28  1  0
 11 29  1  0
 12 30  1  0
 13 31  1  0
M  CHG  2   3   1   6   1
M  END
$$$$
=
     RDKit          3D

 32 33  0  0  0  0  0  0  0  0999 V2000
   17.5220   16.1280    4.8290 C   0  0  0  0  0  0  0  0  0  0  0  0
   19.7980   17.2280    5.2760 C   0  0  0  0  0  0  0  0  0  0  0  0
   21.1060   17.1090    5.7640 C   0  0  0  0  0  0  0  0  0  0  0  0
   21.5080   15.9870    6.4910 C   0  0  0  0  0  0  0  0  0  0  0  0
   20.6130   14.9450    6.7020 C   0  0  0  0  0  0  0  0  0  0  0  0
   19.3290   15.0180    6.1650 C   0  0  0  0  0  0  0  0  0  0  0  0
   18.9150   16.1420    5.4230 C   0  0  0  0  0  0  0  0  0  0  0  0
   19.4810   18.3400    4.4740 N   0  0  0  0  0  0  0  0  0  0  0  0
   17.3970   15.2710    3.5610 C   0  0  0  0  0  0  0  0  0  0  0  0
   16.1660   14.3890    3.5370 C   0  0  0  0  0  0  0  0  0  0  0  0
   14.9590   14.9150    4.0370 C   0  0  0  0  0  0  0  0  0  0  0  0
   13.7970   14.1480    4.0580 C   0  0  0  0  0  0  0  0  0  0  0  0
   13.8280   12.8390    3.5960 C   0  0  0  0  0  0  0  0  0  0  0  0
   15.0170   12.3080    3.0940 C   0  0  0  0  0  0  0  0  0  0  0  0
   16.1810   13.0850    3.0070 C   0  0  0  0  0  0  0  0  0  0  0  0
   17.3680   12.4670    2.5880 N   0  0  0  0  0  0  0  0  0  0  0  0
   16.8269   15.7329    5.5844 H   0  0  0  0  0  0  0  0  0  0  0  0
   17.2866   17.1630    4.5404 H   0  0  0  0  0  0  0  0  0  0  0  0
   21.8296   17.9146    5.5707 H   0  0  0  0  0  0  0  0  0  0  0  0
   22.5293   15.9279    6.8953 H   0  0  0  0  0  0  0  0  0  0  0  0
   20.9167   14.0665    7.2902 H   0  0  0  0  0  0  0  0  0  0  0  0
   18.6279   14.1852    6.3229 H   0  0  0  0  0  0  0  0  0  0  0  0
   18.5269   18.4517    4.1023 H   0  0  0  0  0  0  0  0  0  0  0  0
   20.2031   19.0422    4.2586 H   0  0  0  0  0  0  0  0  0  0  0  0
   17.3590   15.9429    2.6909 H   0  0  0  0  0  0  0  0  0  0  0  0
   18.2701   14.6023    3.5395 H   0  0  0  0  0  0  0  0  0  0  0  0
   14.9338   15.9471    4.4166 H   0  0  0  0  0  0  0  0  0  0  0  0
   12.8586   14.5773    4.4389 H   0  0  0  0  0  0  0  0  0  0  0  0
   12.9178   12.2221    3.6256 H   0  0  0  0  0  0  0  0  0  0  0  0
   15.0415   11.2601    2.7603 H   0  0  0  0  0  0  0  0  0  0  0  0
   18.2366   13.0158    2.5158 H   0  0  0  0  0  0  0  0  0  0  0  0
   17.3712   11.4643    2.3524 H   0  0  0  0  0  0  0  0  0  0  0  0
  3  2  2  0
  4  3  1  0
  5  4  2  0
  6  5  1  0
  7  1  1  0
  7  6  2  0
  7  2  1  0
  8  2  1  0
  9  1  1  0
 10  9  1  0
 11 10  2  0
 12 11  1  0
 13 12  2  0
 14 13  1  0
 15 14  2  0
 15 10  1  0
 16 15  1  0
  1 17  1  0
  1 18  1  0
  3 19  1  0
  4 20  1  0
  5 21  1  0
  6 22  1  0
  8 23  1  0
  8 24  1  0
  9 25  1  0
  9 26  1  0
 11 27  1  0
 12 28  1  0
 13 29  1  0
 14 30  1  0
 16 31  1  0
 16 32  1  0
M  END
$$$$
=
     RDKit          3D

 70 73  0  0  0  0  0  0  0  0999 V2000
   28.3760   26.4890   15.2770 S   0  0  0  0  0  0  0  0  0  0  0  0
   26.9040   26.2070   16.3360 C   0  0  0  0  0  0  0  0  0  0  0  0
   25.8890   27.3570   16.3480 C   0  0  1  0  0  0  0  0  0  0  0  0
   23.8720   26.4590   15.2630 N   0  0  0  0  0  0  0  0  0  0  0  0
   24.5020   26.7170   16.4590 C   0  0  0  0  0  0  0  0  0  0  0  0
   24.0900   26.4880   17.5960 O   0  0  0  0  0  0  0  0  0  0  0  0
   20.2590   25.8180   14.8430 C   0  0  0  0  0  0  0  0  0  0  0  0
   21.4840   26.4710   15.0050 C   0  0  0  0  0  0  0  0  0  0  0  0
   22.6680   25.7350   15.0960 C   0  0  0  0  0  0  0  0  0  0  0  0
   22.6090   24.3430   14.9940 C   0  0  0  0  0  0  0  0  0  0  0  0
   21.3810   23.6720   14.8280 C   0  0  0  0  0  0  0  0  0  0  0  0
   20.1790   24.4140   14.7700 C   0  0  0  0  0  0  0  0  0  0  0  0
   18.9600   23.7160   14.6440 C   0  0  0  0  0  0  0  0  0  0  0  0
   18.9300   22.3250   14.5500 C   0  0  0  0  0  0  0  0  0  0  0  0
   20.1180   21.6040   14.5850 C   0  0  0  0  0  0  0  0  0  0  0  0
   21.3340   22.2720   14.7250 C   0  0  0  0  0  0  0  0  0  0  0  0
   19.3770   27.8560   15.4620 C   0  0  0  0  0  0  0  0  0  0  0  0
   19.1230   26.5890   14.8550 O   0  0  0  0  0  0  0  0  0  0  0  0
   26.0940   28.2530   17.5460 N   0  0  0  0  0  4  0  0  0  0  0  0
   27.6930   27.5780   13.6810 S   0  0  0  0  0  0  0  0  0  0  0  0
   27.9690   26.5660   12.1530 C   0  0  0  0  0  0  0  0  0  0  0  0
   27.3740   25.1480   12.0480 C   0  0  1  0  0  0  0  0  0  0  0  0
   25.8950   25.0850   12.4780 C   0  0  0  0  0  0  0  0  0  0  0  0
   25.6420   24.5780   13.5690 O   0  0  0  0  0  0  0  0  0  0  0  0
   24.9890   25.5770   11.5600 N   0  0  0  0  0  0  0  0  0  0  0  0
   23.5980   25.3140   11.5270 C   0  0  0  0  0  0  0  0  0  0  0  0
   22.7500   26.4220   11.5160 C   0  0  0  0  0  0  0  0  0  0  0  0
   21.3720   26.2540   11.3470 C   0  0  0  0  0  0  0  0  0  0  0  0
   20.8040   24.9790   11.1770 C   0  0  0  0  0  0  0  0  0  0  0  0
   21.6580   23.8540   11.2370 C   0  0  0  0  0  0  0  0  0  0  0  0
   23.0440   24.0370   11.4150 C   0  0  0  0  0  0  0  0  0  0  0  0
   21.1140   22.5650   11.1040 C   0  0  0  0  0  0  0  0  0  0  0  0
   19.7450   22.3820   10.9050 C   0  0  0  0  0  0  0  0  0  0  0  0
   18.9030   23.4850   10.8290 C   0  0  0  0  0  0  0  0  0  0  0  0
   19.4260   24.7710   10.9570 C   0  0  0  0  0  0  0  0  0  0  0  0
   20.6110   27.3920   11.2480 O   0  0  0  0  0  0  0  0  0  0  0  0
   21.1250   28.4140   12.1080 C   0  0  0  0  0  0  0  0  0  0  0  0
   27.5130   24.6100   10.6420 N   0  0  0  0  0  4  0  0  0  0  0  0
   26.3918   25.3026   15.9759 H   0  0  0  0  0  0  0  0  0  0  0  0
   27.2777   26.1137   17.3664 H   0  0  0  0  0  0  0  0  0  0  0  0
   26.0036   27.9655   15.4388 H   0  0  0  0  0  0  0  0  0  0  0  0
   24.3182   26.8270   14.4107 H   0  0  0  0  0  0  0  0  0  0  0  0
   21.5161   27.5691   15.0611 H   0  0  0  0  0  0  0  0  0  0  0  0
   23.5398   23.7590   15.0443 H   0  0  0  0  0  0  0  0  0  0  0  0
   18.0155   24.2792   14.6194 H   0  0  0  0  0  0  0  0  0  0  0  0
   17.9689   21.7997   14.4484 H   0  0  0  0  0  0  0  0  0  0  0  0
   20.0988   20.5073   14.5023 H   0  0  0  0  0  0  0  0  0  0  0  0
   22.2696   21.6944   14.7552 H   0  0  0  0  0  0  0  0  0  0  0  0
   19.3556   27.7491   16.5566 H   0  0  0  0  0  0  0  0  0  0  0  0
   20.3662   28.2210   15.1486 H   0  0  0  0  0  0  0  0  0  0  0  0
   18.6049   28.5741   15.1486 H   0  0  0  0  0  0  0  0  0  0  0  0
   25.9688   27.7057   18.4095 H   0  0  0  0  0  0  0  0  0  0  0  0
   27.0463   28.6447   17.5228 H   0  0  0  0  0  0  0  0  0  0  0  0
   25.4067   29.0198   17.5228 H   0  0  0  0  0  0  0  0  0  0  0  0
   27.5606   27.1445   11.3113 H   0  0  0  0  0  0  0  0  0  0  0  0
   29.0538   26.3841   12.1636 H   0  0  0  0  0  0  0  0  0  0  0  0
   27.9500   24.5220   12.7454 H   0  0  0  0  0  0  0  0  0  0  0  0
   25.3617   26.1967   10.8265 H   0  0  0  0  0  0  0  0  0  0  0  0
   23.1672   27.4321   11.6408 H   0  0  0  0  0  0  0  0  0  0  0  0
   23.7021   23.1571   11.4667 H   0  0  0  0  0  0  0  0  0  0  0  0
   21.7764   21.6884   11.1575 H   0  0  0  0  0  0  0  0  0  0  0  0
   19.3331   21.3666   10.8085 H   0  0  0  0  0  0  0  0  0  0  0  0
   17.8241   23.3434   10.6679 H   0  0  0  0  0  0  0  0  0  0  0  0
   18.7529   25.6381   10.8853 H   0  0  0  0  0  0  0  0  0  0  0  0
   20.9767   28.1191   13.1573 H   0  0  0  0  0  0  0  0  0  0  0  0
   22.1991   28.5507   11.9138 H   0  0  0  0  0  0  0  0  0  0  0  0
   20.5943   29.3578   11.9138 H   0  0  0  0  0  0  0  0  0  0  0  0
   27.7705   23.6134   10.6796 H   0  0  0  0  0  0  0  0  0  0  0  0
   26.6174   24.7147   10.1442 H   0  0  0  0  0  0  0  0  0  0  0  0
   28.2459   25.1354   10.1442 H   0  0  0  0  0  0  0  0  0  0  0  0
  2  1  1  0
  3  2  1  0
  5  4  1  0
  5  3  1  0
  6  5  2  0
  8  7  2  0
  9  8  1  0
  9  4  1  0
 10  9  2  0
 11 10  1  0
 12 11  2  0
 12  7  1  0
 13 12  1  0
 14 13  2  0
 15 14  1  0
 16 15  2  0
 16 11  1  0
 18  7  1  0
 18 17  1  0
 19  3  1  0
 20  1  1  0
 21 20  1  0
 22 21  1  0
 23 22  1  0
 24 23  2  0
 25 23  1  0
 26 25  1  0
 27 26  2  0
 28 27  1  0
 29 28  2  0
 30 29  1  0
 31 30  2  0
 31 26  1  0
 32 30  1  0
 33 32  2  0
 34 33  1  0
 35 34  2  0
 35 29  1  0
 36 28  1  0
 37 36  1  0
 38 22  1  0
  2 39  1  0
  2 40  1  0
  3 41  1  6
  4 42  1  0
  8 43  1  0
 10 44  1  0
 13 45  1  0
 14 46  1  0
 15 47  1  0
 16 48  1  0
 17 49  1  0
 17 50  1  0
 17 51  1  0
 19 52  1  0
 19 53  1  0
 19 54  1  0
 21 55  1  0
 21 56  1  0
 22 57  1  1
 25 58  1  0
 27 59  1  0
 31 60  1  0
 32 61  1  0
 33 62  1  0
 34 63  1  0
 35 64  1  0
 37 65  1  0
 37 66  1  0
 37 67  1  0
 38 68  1  0
 38 69  1  0
 38 70  1  0
M  CHG  2  19   1  38   1
M  END
$$$$
=
     RDKit          3D

 25 26  0  0  0  0  0  0  0  0999 V2000
   18.7870   17.0020    4.9510 N   0  0  0  0  0  0  0  0  0  0  0  0
   18.0490   15.9210    4.4450 C   0  0  0  0  0  0  0  0  0  0  0  0
   16.7250   16.0170    4.6440 N   0  0  0  0  0  0  0  0  0  0  0  0
   15.9430   15.0170    4.2190 C   0  0  0  0  0  0  0  0  0  0  0  0
   14.5680   15.1080    4.4160 C   0  0  0  0  0  0  0  0  0  0  0  0
   13.6830   14.0990    4.0070 C   0  0  0  0  0  0  0  0  0  0  0  0
   12.2050   14.2580    4.2130 C   0  0  0  0  0  0  0  0  0  0  0  0
   14.1930   12.9760    3.3600 C   0  0  0  0  0  0  0  0  0  0  0  0
   15.5670   12.8630    3.1510 C   0  0  0  0  0  0  0  0  0  0  0  0
   16.4500   13.8830    3.5830 C   0  0  0  0  0  0  0  0  0  0  0  0
   17.8400   13.8730    3.4270 C   0  0  0  0  0  0  0  0  0  0  0  0
   18.6230   14.8700    3.8540 N   0  0  0  0  0  0  0  0  0  0  0  0
   18.5010   12.8020    2.8060 N   0  0  0  0  0  0  0  0  0  0  0  0
   19.3460   17.9350    3.0800 O   0  0  0  0  0  1  0  0  0  0  0  0
   19.7470   17.3290    4.0770 N   0  0  0  0  0  4  0  0  0  0  0  0
   20.9150   17.1270    4.4140 O   0  0  0  0  0  0  0  0  0  0  0  0
   18.6169   17.4701    5.8526 H   0  0  0  0  0  0  0  0  0  0  0  0
   14.1609   16.0026    4.9098 H   0  0  0  0  0  0  0  0  0  0  0  0
   11.9854   14.2816    5.2906 H   0  0  0  0  0  0  0  0  0  0  0  0
   11.8692   15.1975    3.7497 H   0  0  0  0  0  0  0  0  0  0  0  0
   11.6770   13.4115    3.7497 H   0  0  0  0  0  0  0  0  0  0  0  0
   13.5147   12.1816    3.0153 H   0  0  0  0  0  0  0  0  0  0  0  0
   15.9694   11.9727    2.6455 H   0  0  0  0  0  0  0  0  0  0  0  0
   19.5257   12.8190    2.7035 H   0  0  0  0  0  0  0  0  0  0  0  0
   17.9614   11.9989    2.4527 H   0  0  0  0  0  0  0  0  0  0  0  0
  2  1  1  0
  3  2  2  0
  4  3  1  0
  5  4  2  0
  6  5  1  0
  7  6  1  0
  8  6  2  0
  9  8  1  0
 10  9  2  0
 10  4  1  0
 11 10  1  0
 12 11  2  0
 12  2  1  0
 13 11  1  0
 15 14  1  0
 15  1  1  0
 16 15  2  0
  1 17  1  0
  5 18  1  0
  7 19  1  0
  7 20  1  0
  7 21  1  0
  8 22  1  0
  9 23  1  0
 13 24  1  0
 13 25  1  0
M  CHG  2  14  -1  15   1
M  END
$$$$
=
     RDKit          3D

 39 40  0  0  0  0  0  0  0  0999 V2000
   16.7150   16.4390    5.0060 C   0  0  0  0  0  0  0  0  0  0  0  0
   15.4440   13.2890    3.2630 C   0  0  0  0  0  0  0  0  0  0  0  0
   16.2870   14.2980    3.7550 C   0  0  0  0  0  0  0  0  0  0  0  0
   15.7830   15.4030    4.4530 C   0  0  0  0  0  0  0  0  0  0  0  0
   14.4030   15.4940    4.6420 C   0  0  0  0  0  0  0  0  0  0  0  0
   13.5530   14.4900    4.1610 C   0  0  0  0  0  0  0  0  0  0  0  0
   14.0590   13.3740    3.4780 C   0  0  0  0  0  0  0  0  0  0  0  0
   17.5610   12.2530    2.8260 C   0  0  0  0  0  0  0  0  0  0  0  0
   16.1520   12.2980    2.6360 O   0  0  0  0  0  0  0  0  0  0  0  0
   13.2730   12.3480    3.0340 O   0  0  0  0  0  0  0  0  0  0  0  0
   11.9200   12.6210    2.6910 C   0  0  0  0  0  0  0  0  0  0  0  0
   18.0680   16.4210    4.3480 N   0  0  0  0  0  4  0  0  0  0  0  0
   19.2410   16.8560    5.1830 C   0  0  2  0  0  0  0  0  0  0  0  0
   19.4610   18.3670    5.0880 C   0  0  0  0  0  0  0  0  0  0  0  0
   20.7990   18.6260    5.7750 C   0  0  0  0  0  0  0  0  0  0  0  0
   21.8100   17.2050    5.3870 S   0  0  0  0  0  6  0  0  0  0  0  0
   22.7290   17.5550    4.3300 O   0  0  0  0  0  0  0  0  0  0  0  0
   22.2100   16.5760    6.6250 O   0  0  0  0  0  0  0  0  0  0  0  0
   20.5200   16.2090    4.6730 C   0  0  0  0  0  0  0  0  0  0  0  0
   16.2651   17.4315    4.8561 H   0  0  0  0  0  0  0  0  0  0  0  0
   16.8637   16.2135    6.0723 H   0  0  0  0  0  0  0  0  0  0  0  0
   17.3714   14.2188    3.5881 H   0  0  0  0  0  0  0  0  0  0  0  0
   13.9802   16.3600    5.1723 H   0  0  0  0  0  0  0  0  0  0  0  0
   12.4684   14.5782    4.3218 H   0  0  0  0  0  0  0  0  0  0  0  0
   17.7857   12.2458    3.9028 H   0  0  0  0  0  0  0  0  0  0  0  0
   17.9648   11.3415    2.3611 H   0  0  0  0  0  0  0  0  0  0  0  0
   18.0221   13.1369    2.3611 H   0  0  0  0  0  0  0  0  0  0  0  0
   11.3260   12.7409    3.6091 H   0  0  0  0  0  0  0  0  0  0  0  0
   11.8714   13.5470    2.0993 H   0  0  0  0  0  0  0  0  0  0  0  0
   11.5161   11.7862    2.0993 H   0  0  0  0  0  0  0  0  0  0  0  0
   18.2492   15.4559    4.0371 H   0  0  0  0  0  0  0  0  0  0  0  0
   18.0061   17.1174    3.5916 H   0  0  0  0  0  0  0  0  0  0  0  0
   19.0185   16.5590    6.2185 H   0  0  0  0  0  0  0  0  0  0  0  0
   19.5009   18.6846    4.0356 H   0  0  0  0  0  0  0  0  0  0  0  0
   18.6428   18.9299    5.5608 H   0  0  0  0  0  0  0  0  0  0  0  0
   21.2606   19.5454    5.3856 H   0  0  0  0  0  0  0  0  0  0  0  0
   20.6833   18.7634    6.8602 H   0  0  0  0  0  0  0  0  0  0  0  0
   20.5952   15.1660    5.0145 H   0  0  0  0  0  0  0  0  0  0  0  0
   20.5697   16.1703    3.5748 H   0  0  0  0  0  0  0  0  0  0  0  0
  3  2  2  0
  4  3  1  0
  4  1  1  0
  5  4  2  0
  6  5  1  0
  7  6  2  0
  7  2  1  0
  9  2  1  0
  9  8  1  0
 10  7  1  0
 11 10  1  0
 12  1  1  0
 13 12  1  0
 14 13  1  0
 15 14  1  0
 16 15  1  0
 17 16  2  0
 18 16  2  0
 19 13  1  0
 19 16  1  0
  1 20  1  0
  1 21  1  0
  3 22  1  0
  5 23  1  0
  6 24  1  0
  8 25  1  0
  8 26  1  0
  8 27  1  0
 11 28  1  0
 11 29  1  0
 11 30  1  0
 12 31  1  0
 12 32  1  0
 13 33  1  1
 14 34  1  0
 14 35  1  0
 15 36  1  0
 15 37  1  0
 19 38  1  0
 19 39  1  0
M  CHG  1  12   1
M  END
$$$$
=
     RDKit          3D

 19 19  0  0  0  0  0  0  0  0999 V2000
   14.1390   13.8650    3.9010 C   0  0  0  0  0  0  0  0  0  0  0  0
   14.0620   12.6810    3.1310 C   0  0  0  0  0  0  0  0  0  0  0  0
   15.2130   12.2250    2.4770 C   0  0  0  0  0  0  0  0  0  0  0  0
   16.4350   12.8750    2.6340 C   0  0  0  0  0  0  0  0  0  0  0  0
   16.5150   14.0180    3.4250 C   0  0  0  0  0  0  0  0  0  0  0  0
   15.3720   14.5320    4.0650 C   0  0  0  0  0  0  0  0  0  0  0  0
   15.4960   15.7730    4.9060 C   0  0  0  0  0  0  0  0  0  0  0  0
   16.7140   16.3670    4.7850 F   0  0  0  0  0  0  0  0  0  0  0  0
   15.3320   15.5170    6.2320 F   0  0  0  0  0  0  0  0  0  0  0  0
   14.5840   16.7370    4.6000 F   0  0  0  0  0  0  0  0  0  0  0  0
   12.8350   12.0720    2.8070 N   0  0  0  0  0  0  0  0  0  0  0  0
   12.1530   13.6670    5.2070 O   0  0  0  0  0  0  0  0  0  0  0  0
   12.9120   14.3880    4.5660 C   0  0  0  0  0  0  0  0  0  0  0  0
   15.1513   11.3387    1.8284 H   0  0  0  0  0  0  0  0  0  0  0  0
   17.3345   12.4862    2.1343 H   0  0  0  0  0  0  0  0  0  0  0  0
   17.4829   14.5251    3.5511 H   0  0  0  0  0  0  0  0  0  0  0  0
   12.8209   11.2098    2.2437 H   0  0  0  0  0  0  0  0  0  0  0  0
   11.9513   12.4886    3.1332 H   0  0  0  0  0  0  0  0  0  0  0  0
   12.6780   15.4593    4.4792 H   0  0  0  0  0  0  0  0  0  0  0  0
  2  1  2  0
  3  2  1  0
  4  3  2  0
  5  4  1  0
  6  1  1  0
  6  5  2  0
  7  6  1  0
  8  7  1  0
  9  7  1  0
 10  7  1  0
 11  2  1  0
 13 12  2  0
 13  1  1  0
  3 14  1  0
  4 15  1  0
  5 16  1  0
 11 17  1  0
 11 18  1  0
 13 19  1  0
M  END
$$$$
=
     RDKit          3D

 25 26  0  0  0  0  0  0  0  0999 V2000
   15.0670   14.8020    3.7380 C   0  0  2  0  0  0  0  0  0  0  0  0
   13.9550   13.8940    4.2460 C   0  0  0  0  0  0  0  0  0  0  0  0
   13.8820   12.8140    3.1870 C   0  0  0  0  0  0  0  0  0  0  0  0
   15.3030   12.6520    2.7320 N   0  0  0  0  0  4  0  0  0  0  0  0
   16.1100   13.8140    3.2440 C   0  0  0  0  0  0  0  0  0  0  0  0
   16.9230   16.3240    6.3500 C   0  0  0  0  0  0  0  0  0  0  0  0
   15.7570   15.3150    6.2890 C   0  0  0  0  0  0  0  0  0  0  0  0
   15.5460   15.7660    4.8140 C   0  0  0  0  0  0  0  0  0  0  0  0
   17.0460   16.1710    4.8180 C   0  0  0  0  0  0  0  0  0  0  0  0
   14.7629   15.4900    2.9354 H   0  0  0  0  0  0  0  0  0  0  0  0
   14.2106   13.4680    5.2274 H   0  0  0  0  0  0  0  0  0  0  0  0
   13.0004   14.4204    4.3929 H   0  0  0  0  0  0  0  0  0  0  0  0
   13.4986   11.8749    3.6126 H   0  0  0  0  0  0  0  0  0  0  0  0
   13.2017   13.0755    2.3631 H   0  0  0  0  0  0  0  0  0  0  0  0
   15.6878   11.7721    3.1044 H   0  0  0  0  0  0  0  0  0  0  0  0
   15.3407   12.6253    1.7030 H   0  0  0  0  0  0  0  0  0  0  0  0
   16.7695   13.4991    4.0661 H   0  0  0  0  0  0  0  0  0  0  0  0
   16.7663   14.2439    2.4730 H   0  0  0  0  0  0  0  0  0  0  0  0
   16.6406   17.3315    6.6893 H   0  0  0  0  0  0  0  0  0  0  0  0
   17.7842   16.1735    7.0176 H   0  0  0  0  0  0  0  0  0  0  0  0
   16.0526   14.2624    6.4105 H   0  0  0  0  0  0  0  0  0  0  0  0
   14.9383   15.3273    7.0236 H   0  0  0  0  0  0  0  0  0  0  0  0
   14.7273   16.4557    4.5609 H   0  0  0  0  0  0  0  0  0  0  0  0
   17.7366   15.3806    4.4888 H   0  0  0  0  0  0  0  0  0  0  0  0
   17.4305   16.9821    4.1821 H   0  0  0  0  0  0  0  0  0  0  0  0
  2  1  1  0
  3  2  1  0
  4  3  1  0
  5  4  1  0
  5  1  1  0
  7  6  1  0
  8  1  1  0
  8  7  1  0
  9  8  1  0
  9  6  1  0
  1 10  1  6
  2 11  1  0
  2 12  1  0
  3 13  1  0
  3 14  1  0
  4 15  1  0
  4 16  1  0
  5 17  1  0
  5 18  1  0
  6 19  1  0
  6 20  1  0
  7 21  1  0
  7 22  1  0
  8 23  1  0
  9 24  1  0
  9 25  1  0
M  CHG  1   4   1
M  END
$$$$
=
     RDKit          3D

 35 36  0  0  0  0  0  0  0  0999 V2000
   16.8980   14.2240    3.5080 C   0  0  0  0  0  0  0  0  0  0  0  0
   15.5390   13.8680    3.5740 C   0  0  0  0  0  0  0  0  0  0  0  0
   14.9300   12.7330    2.7990 C   0  0  0  0  0  0  0  0  0  0  0  0
   14.6870   14.6250    4.3930 C   0  0  0  0  0  0  0  0  0  0  0  0
   15.1560   15.7410    5.0790 C   0  0  0  0  0  0  0  0  0  0  0  0
   16.4820   16.1400    4.9380 C   0  0  0  0  0  0  0  0  0  0  0  0
   17.3670   15.4100    4.1280 C   0  0  0  0  0  0  0  0  0  0  0  0
   18.8100   15.8350    3.9200 C   0  0  1  0  0  0  0  0  0  0  0  0
   19.1180   17.3500    3.9390 C   0  0  0  0  0  0  0  0  0  0  0  0
   19.6150   17.8410    5.2950 C   0  0  0  0  0  0  0  0  0  0  0  0
   20.8830   17.1040    5.7340 C   0  0  0  0  0  0  0  0  0  0  0  0
   21.0290   15.7220    5.1120 C   0  0  0  0  0  0  0  0  0  0  0  0
   19.6850   15.1320    4.9220 N   0  0  0  0  0  4  0  0  0  0  0  0
   18.2140   12.2570    3.3930 C   0  0  0  0  0  0  0  0  0  0  0  0
   17.8510   13.5140    2.8150 O   0  0  0  0  0  0  0  0  0  0  0  0
   14.5287   11.9850    3.4986 H   0  0  0  0  0  0  0  0  0  0  0  0
   14.1164   13.1164    2.1656 H   0  0  0  0  0  0  0  0  0  0  0  0
   15.6993   12.2671    2.1656 H   0  0  0  0  0  0  0  0  0  0  0  0
   13.6317   14.3314    4.4942 H   0  0  0  0  0  0  0  0  0  0  0  0
   14.4781   16.3086    5.7335 H   0  0  0  0  0  0  0  0  0  0  0  0
   16.8402   17.0359    5.4662 H   0  0  0  0  0  0  0  0  0  0  0  0
   19.0256   15.5388    2.8828 H   0  0  0  0  0  0  0  0  0  0  0  0
   19.8914   17.5598    3.1854 H   0  0  0  0  0  0  0  0  0  0  0  0
   18.1784   17.8792    3.7220 H   0  0  0  0  0  0  0  0  0  0  0  0
   19.8337   18.9169    5.2263 H   0  0  0  0  0  0  0  0  0  0  0  0
   18.8294   17.6452    6.0396 H   0  0  0  0  0  0  0  0  0  0  0  0
   21.7550   17.7094    5.4456 H   0  0  0  0  0  0  0  0  0  0  0  0
   20.8144   16.9629    6.8228 H   0  0  0  0  0  0  0  0  0  0  0  0
   21.5346   15.8076    4.1389 H   0  0  0  0  0  0  0  0  0  0  0  0
   21.6259   15.0784    5.7749 H   0  0  0  0  0  0  0  0  0  0  0  0
   19.8063   14.1578    4.6104 H   0  0  0  0  0  0  0  0  0  0  0  0
   19.2052   15.2184    5.8293 H   0  0  0  0  0  0  0  0  0  0  0  0
   18.1908   12.3374    4.4898 H   0  0  0  0  0  0  0  0  0  0  0  0
   17.5023   11.4843    3.0668 H   0  0  0  0  0  0  0  0  0  0  0  0
   19.2281   11.9826    3.0668 H   0  0  0  0  0  0  0  0  0  0  0  0
  2  1  2  0
  3  2  1  0
  4  2  1  0
  5  4  2  0
  6  5  1  0
  7  6  2  0
  7  1  1  0
  8  7  1  0
  9  8  1  0
 10  9  1  0
 11 10  1  0
 12 11  1  0
 13 12  1  0
 13  8  1  0
 15 14  1  0
 15  1  1  0
  3 16  1  0
  3 17  1  0
  3 18  1  0
  4 19  1  0
  5 20  1  0
  6 21  1  0
  8 22  1  6
  9 23  1  0
  9 24  1  0
 10 25  1  0
 10 26  1  0
 11 27  1  0
 11 28  1  0
 12 29  1  0
 12 30  1  0
 13 31  1  0
 13 32  1  0
 14 33  1  0
 14 34  1  0
 14 35  1  0
M  CHG  1  13   1
M  END
$$$$
=
     RDKit          3D

 27 28  0  0  0  0  0  0  0  0999 V2000
   17.0270   14.7820    3.8590 C   0  0  0  0  0  0  0  0  0  0  0  0
   16.3710   15.7530    4.6120 C   0  0  0  0  0  0  0  0  0  0  0  0
   14.9900   15.6800    4.7900 C   0  0  0  0  0  0  0  0  0  0  0  0
   14.2550   14.6380    4.2150 C   0  0  0  0  0  0  0  0  0  0  0  0
   14.9030   13.6400    3.4570 C   0  0  0  0  0  0  0  0  0  0  0  0
   16.2930   13.7150    3.2970 C   0  0  0  0  0  0  0  0  0  0  0  0
   14.2180   12.6130    2.8950 N   0  0  0  0  0  0  0  0  0  0  0  0
   12.8700   12.5820    3.0610 C   0  0  0  0  0  0  0  0  0  0  0  0
   12.1590   13.5190    3.7840 C   0  0  0  0  0  0  0  0  0  0  0  0
   12.8660   14.5590    4.3720 C   0  0  0  0  0  0  0  0  0  0  0  0
   19.0200   16.0300    3.4250 C   0  0  0  0  0  0  0  0  0  0  0  0
   18.3740   14.7710    3.6060 O   0  0  0  0  0  0  0  0  0  0  0  0
   16.9980   12.6990    2.4350 C   0  0  0  0  0  0  0  0  0  0  0  0
   18.1340   12.0240    3.1090 N   0  0  0  0  0  4  0  0  0  0  0  0
   16.9418   16.5766    5.0658 H   0  0  0  0  0  0  0  0  0  0  0  0
   14.4749   16.4472    5.3868 H   0  0  0  0  0  0  0  0  0  0  0  0
   12.3107   11.7599    2.5905 H   0  0  0  0  0  0  0  0  0  0  0  0
   11.0668   13.4438    3.8907 H   0  0  0  0  0  0  0  0  0  0  0  0
   12.3349   15.3210    4.9613 H   0  0  0  0  0  0  0  0  0  0  0  0
   19.2461   16.4707    4.4072 H   0  0  0  0  0  0  0  0  0  0  0  0
   19.9551   15.8850    2.8641 H   0  0  0  0  0  0  0  0  0  0  0  0
   18.3569   16.7051    2.8641 H   0  0  0  0  0  0  0  0  0  0  0  0
   16.2680   11.9326    2.1355 H   0  0  0  0  0  0  0  0  0  0  0  0
   17.4149   13.2439    1.5752 H   0  0  0  0  0  0  0  0  0  0  0  0
   18.0176   12.0932    4.1301 H   0  0  0  0  0  0  0  0  0  0  0  0
   18.1570   11.0321    2.8325 H   0  0  0  0  0  0  0  0  0  0  0  0
   19.0162   12.4781    2.8325 H   0  0  0  0  0  0  0  0  0  0  0  0
  2  1  2  0
  3  2  1  0
  4  3  2  0
  5  4  1  0
  6  5  2  0
  6  1  1  0
  7  5  1  0
  8  7  2  0
  9  8  1  0
 10  9  2  0
 10  4  1  0
 12 11  1  0
 12  1  1  0
 13  6  1  0
 14 13  1  0
  2 15  1  0
  3 16  1  0
  8 17  1  0
  9 18  1  0
 10 19  1  0
 11 20  1  0
 11 21  1  0
 11 22  1  0
 13 23  1  0
 13 24  1  0
 14 25  1  0
 14 26  1  0
 14 27  1  0
M  CHG  1  14   1
M  END
$$$$
=
     RDKit          3D

 27 27  0  0  0  0  0  0  0  0999 V2000
   21.5530   16.5440    4.7970 C   0  0  2  0  0  0  0  0  0  0  0  0
   22.2380   16.9500    6.0920 C   0  0  0  0  0  0  0  0  0  0  0  0
   22.7060   18.3620    5.8430 N   0  0  0  0  0  4  0  0  0  0  0  0
   22.1550   18.8160    4.5220 C   0  0  0  0  0  0  0  0  0  0  0  0
   21.0000   17.8610    4.2460 C   0  0  2  0  0  0  0  0  0  0  0  0
   19.7100   18.3420    4.9190 C   0  0  0  0  0  0  0  0  0  0  0  0
   20.5360   15.4640    5.0500 C   0  0  0  0  0  0  0  0  0  0  0  0
   20.2610   15.0460    6.1650 O   0  0  0  0  0  0  0  0  0  0  0  0
   20.0160   15.0260    3.8760 O   0  0  0  0  0  0  0  0  0  0  0  0
   17.6270   15.4220    3.7930 C   0  0  0  0  0  0  0  0  0  0  0  0
   18.7270   14.3900    3.9520 C   0  0  0  0  0  0  0  0  0  0  0  0
   22.2157   16.0810    4.0510 H   0  0  0  0  0  0  0  0  0  0  0  0
   21.5302   16.9173    6.9334 H   0  0  0  0  0  0  0  0  0  0  0  0
   23.0650   16.2752    6.3579 H   0  0  0  0  0  0  0  0  0  0  0  0
   22.3645   18.9794    6.5934 H   0  0  0  0  0  0  0  0  0  0  0  0
   23.7353   18.3971    5.8288 H   0  0  0  0  0  0  0  0  0  0  0  0
   21.7956   19.8537    4.5859 H   0  0  0  0  0  0  0  0  0  0  0  0
   22.9119   18.8009    3.7240 H   0  0  0  0  0  0  0  0  0  0  0  0
   20.7014   17.7745    3.1908 H   0  0  0  0  0  0  0  0  0  0  0  0
   19.8281   18.2980    6.0118 H   0  0  0  0  0  0  0  0  0  0  0  0
   19.5017   19.3782    4.6142 H   0  0  0  0  0  0  0  0  0  0  0  0
   18.8742   17.6951    4.6142 H   0  0  0  0  0  0  0  0  0  0  0  0
   17.2818   15.7459    4.7859 H   0  0  0  0  0  0  0  0  0  0  0  0
   18.0152   16.2893    3.2389 H   0  0  0  0  0  0  0  0  0  0  0  0
   16.7862   14.9793    3.2389 H   0  0  0  0  0  0  0  0  0  0  0  0
   18.6227   13.8945    4.9285 H   0  0  0  0  0  0  0  0  0  0  0  0
   18.6436   13.6473    3.1449 H   0  0  0  0  0  0  0  0  0  0  0  0
  2  1  1  0
  3  2  1  0
  4  3  1  0
  5  1  1  0
  5  4  1  0
  6  5  1  0
  7  1  1  0
  8  7  2  0
  9  7  1  0
 11 10  1  0
 11  9  1  0
  1 12  1  6
  2 13  1  0
  2 14  1  0
  3 15  1  0
  3 16  1  0
  4 17  1  0
  4 18  1  0
  5 19  1  6
  6 20  1  0
  6 21  1  0
  6 22  1  0
 10 23  1  0
 10 24  1  0
 10 25  1  0
 11 26  1  0
 11 27  1  0
M  CHG  1   3   1
M  END
$$$$
=
     RDKit          3D

 34 36  0  0  0  0  0  0  0  0999 V2000
   19.3800   13.6970    6.8320 O   0  0  0  0  0  0  0  0  0  0  0  0
   19.8270   14.7250    6.3570 C   0  0  0  0  0  0  0  0  0  0  0  0
   21.0860   15.1430    6.6420 N   0  0  0  0  0  0  0  0  0  0  0  0
   21.3930   16.2550    5.9560 C   0  0  0  0  0  0  0  0  0  0  0  0
   22.4750   16.8330    5.9520 O   0  0  0  0  0  0  0  0  0  0  0  0
   20.1750   16.7270    5.1400 C   0  0  0  0  0  0  0  0  0  0  0  0
   19.2350   15.6500    5.4700 N   0  0  0  0  0  0  0  0  0  0  0  0
   19.7800   18.1030    5.7090 C   0  0  0  0  0  0  0  0  0  0  0  0
   20.8180   19.2000    5.4660 C   0  0  0  0  0  0  0  0  0  0  0  0
   21.7640   18.8320    4.3770 N   0  0  0  0  0  4  0  0  0  0  0  0
   21.1420   18.1230    3.2300 C   0  0  0  0  0  0  0  0  0  0  0  0
   20.6420   16.7510    3.6680 C   0  0  0  0  0  0  0  0  0  0  0  0
   17.8870   15.5620    4.9800 C   0  0  0  0  0  0  0  0  0  0  0  0
   17.5650   14.8010    3.8460 C   0  0  0  0  0  0  0  0  0  0  0  0
   16.2520   14.7060    3.3660 C   0  0  0  0  0  0  0  0  0  0  0  0
   15.2210   15.3720    4.0100 C   0  0  0  0  0  0  0  0  0  0  0  0
   15.5050   16.1330    5.1350 C   0  0  0  0  0  0  0  0  0  0  0  0
   16.8200   16.2250    5.6120 C   0  0  0  0  0  0  0  0  0  0  0  0
   21.7226   14.6691    7.2986 H   0  0  0  0  0  0  0  0  0  0  0  0
   18.8342   18.4122    5.2402 H   0  0  0  0  0  0  0  0  0  0  0  0
   19.6942   17.9830    6.7991 H   0  0  0  0  0  0  0  0  0  0  0  0
   20.2973   20.1280    5.1873 H   0  0  0  0  0  0  0  0  0  0  0  0
   21.3968   19.3353    6.3916 H   0  0  0  0  0  0  0  0  0  0  0  0
   22.1981   19.6964    4.0230 H   0  0  0  0  0  0  0  0  0  0  0  0
   22.4439   18.1778    4.7901 H   0  0  0  0  0  0  0  0  0  0  0  0
   20.2951   18.7150    2.8528 H   0  0  0  0  0  0  0  0  0  0  0  0
   21.8933   17.9950    2.4368 H   0  0  0  0  0  0  0  0  0  0  0  0
   19.7962   16.4636    3.0261 H   0  0  0  0  0  0  0  0  0  0  0  0
   21.4820   16.0468    3.5751 H   0  0  0  0  0  0  0  0  0  0  0  0
   18.3666   14.2633    3.3185 H   0  0  0  0  0  0  0  0  0  0  0  0
   16.0383   14.0997    2.4734 H   0  0  0  0  0  0  0  0  0  0  0  0
   14.1900   15.2981    3.6337 H   0  0  0  0  0  0  0  0  0  0  0  0
   14.6952   16.6661    5.6546 H   0  0  0  0  0  0  0  0  0  0  0  0
   17.0229   16.8330    6.5059 H   0  0  0  0  0  0  0  0  0  0  0  0
  2  1  2  0
  3  2  1  0
  4  3  1  0
  5  4  2  0
  6  4  1  0
  7  2  1  0
  7  6  1  0
  8  6  1  0
  9  8  1  0
 10  9  1  0
 11 10  1  0
 12 11  1  0
 12  6  1  0
 13  7  1  0
 14 13  2  0
 15 14  1  0
 16 15  2  0
 17 16  1  0
 18 17  2  0
 18 13  1  0
  3 19  1  0
  8 20  1  0
  8 21  1  0
  9 22  1  0
  9 23  1  0
 10 24  1  0
 10 25  1  0
 11 26  1  0
 11 27  1  0
 12 28  1  0
 12 29  1  0
 14 30  1  0
 15 31  1  0
 16 32  1  0
 17 33  1  0
 18 34  1  0
M  CHG  1  10   1
M  END
$$$$
=
     RDKit          3D

 38 39  0  0  0  0  0  0  0  0999 V2000
   20.2520   16.9280    4.4180 C   0  0  1  0  0  0  0  0  0  0  0  0
   20.6520   16.3150    5.6550 O   0  0  0  0  0  0  0  0  0  0  0  0
   19.7100   15.3830    6.2160 C   0  0  0  0  0  0  0  0  0  0  0  0
   18.8520   14.6710    5.1680 C   0  0  0  0  0  0  0  0  0  0  0  0
   18.0510   15.6960    4.3630 N   0  0  2  0  0  4  0  0  0  0  0  0
   18.7150   17.0690    4.3250 C   0  0  0  0  0  0  0  0  0  0  0  0
   20.9370   18.3140    4.3160 C   0  0  0  0  0  0  0  0  0  0  0  0
   23.3370   18.4670    5.1880 C   0  0  0  0  0  0  0  0  0  0  0  0
   21.8720   18.6040    5.4620 N   0  0  0  0  0  4  0  0  0  0  0  0
   16.5870   15.7840    4.7800 C   0  0  0  0  0  0  0  0  0  0  0  0
   15.7450   14.7050    4.1590 C   0  0  0  0  0  0  0  0  0  0  0  0
   16.2820   13.8530    3.1820 C   0  0  0  0  0  0  0  0  0  0  0  0
   15.4890   12.8700    2.5880 C   0  0  0  0  0  0  0  0  0  0  0  0
   14.1570   12.7240    2.9660 C   0  0  0  0  0  0  0  0  0  0  0  0
   13.6150   13.5550    3.9430 C   0  0  0  0  0  0  0  0  0  0  0  0
   14.4030   14.5400    4.5400 C   0  0  0  0  0  0  0  0  0  0  0  0
   20.5645   16.2892    3.5788 H   0  0  0  0  0  0  0  0  0  0  0  0
   20.2684   14.6231    6.7824 H   0  0  0  0  0  0  0  0  0  0  0  0
   19.0253   15.9618    6.8533 H   0  0  0  0  0  0  0  0  0  0  0  0
   19.5041   14.1031    4.4881 H   0  0  0  0  0  0  0  0  0  0  0  0
   18.1559   13.9870    5.6756 H   0  0  0  0  0  0  0  0  0  0  0  0
   18.0526   15.3375    3.3974 H   0  0  0  0  0  0  0  0  0  0  0  0
   18.4537   17.5719    3.3822 H   0  0  0  0  0  0  0  0  0  0  0  0
   18.3589   17.6611    5.1809 H   0  0  0  0  0  0  0  0  0  0  0  0
   21.5117   18.3510    3.3788 H   0  0  0  0  0  0  0  0  0  0  0  0
   20.1414   19.0730    4.3453 H   0  0  0  0  0  0  0  0  0  0  0  0
   23.8849   18.4158    6.1404 H   0  0  0  0  0  0  0  0  0  0  0  0
   23.5178   17.5480    4.6111 H   0  0  0  0  0  0  0  0  0  0  0  0
   23.6850   19.3365    4.6111 H   0  0  0  0  0  0  0  0  0  0  0  0
   21.7010   19.5731    5.7662 H   0  0  0  0  0  0  0  0  0  0  0  0
   21.6617   17.8862    6.1701 H   0  0  0  0  0  0  0  0  0  0  0  0
   16.5260   15.6928    5.8745 H   0  0  0  0  0  0  0  0  0  0  0  0
   16.1984   16.7525    4.4322 H   0  0  0  0  0  0  0  0  0  0  0  0
   17.3349   13.9605    2.8823 H   0  0  0  0  0  0  0  0  0  0  0  0
   15.9172   12.2094    1.8197 H   0  0  0  0  0  0  0  0  0  0  0  0
   13.5326   11.9519    2.4927 H   0  0  0  0  0  0  0  0  0  0  0  0
   12.5640   13.4349    4.2447 H   0  0  0  0  0  0  0  0  0  0  0  0
   13.9705   15.1913    5.3138 H   0  0  0  0  0  0  0  0  0  0  0  0
  2  1  1  0
  3  2  1  0
  4  3  1  0
  5  4  1  0
  6  5  1  0
  6  1  1  0
  7  1  1  0
  9  7  1  0
  9  8  1  0
 10  5  1  0
 11 10  1  0
 12 11  2  0
 13 12  1  0
 14 13  2  0
 15 14  1  0
 16 15  2  0
 16 11  1  0
  1 17  1  6
  3 18  1  0
  3 19  1  0
  4 20  1  0
  4 21  1  0
  5 22  1  6
  6 23  1  0
  6 24  1  0
  7 25  1  0
  7 26  1  0
  8 27  1  0
  8 28  1  0
  8 29  1  0
  9 30  1  0
  9 31  1  0
 10 32  1  0
 10 33  1  0
 12 34  1  0
 13 35  1  0
 14 36  1  0
 15 37  1  0
 16 38  1  0
M  CHG  2   5   1   9   1
M  END
$$$$
=
     RDKit          3D

 25 26  0  0  0  0  0  0  0  0999 V2000
   19.5680   14.7730    5.8080 C   0  0  0  0  0  0  0  0  0  0  0  0
   18.8270   14.6740    4.4810 C   0  0  1  0  0  0  0  0  0  0  0  0
   17.3990   15.0930    4.5440 C   0  0  0  0  0  0  0  0  0  0  0  0
   16.6390   15.8640    5.4010 C   0  0  0  0  0  0  0  0  0  0  0  0
   15.3200   15.8540    4.8850 C   0  0  0  0  0  0  0  0  0  0  0  0
   15.3540   15.0800    3.7500 C   0  0  0  0  0  0  0  0  0  0  0  0
   16.6120   14.6160    3.5310 O   0  0  0  0  0  0  0  0  0  0  0  0
   19.5710   15.4220    3.4070 N   0  0  0  0  0  4  0  0  0  0  0  0
   19.2440   16.8470    3.2100 C   0  0  0  0  0  0  0  0  0  0  0  0
   19.6900   17.5050    1.9380 C   0  0  0  0  0  0  0  0  0  0  0  0
   20.4110   17.7940    3.2240 C   0  0  0  0  0  0  0  0  0  0  0  0
   18.8508   14.6772    6.6365 H   0  0  0  0  0  0  0  0  0  0  0  0
   20.3131   13.9664    5.8729 H   0  0  0  0  0  0  0  0  0  0  0  0
   20.0753   15.7469    5.8729 H   0  0  0  0  0  0  0  0  0  0  0  0
   18.7991   13.6041    4.2270 H   0  0  0  0  0  0  0  0  0  0  0  0
   16.9887   16.3832    6.3055 H   0  0  0  0  0  0  0  0  0  0  0  0
   14.4426   16.3645    5.3087 H   0  0  0  0  0  0  0  0  0  0  0  0
   14.4856   14.8664    3.1095 H   0  0  0  0  0  0  0  0  0  0  0  0
   20.5746   15.3651    3.6317 H   0  0  0  0  0  0  0  0  0  0  0  0
   19.2864   14.9663    2.5283 H   0  0  0  0  0  0  0  0  0  0  0  0
   18.2802   16.7705    3.7346 H   0  0  0  0  0  0  0  0  0  0  0  0
   20.1812   16.9099    1.1541 H   0  0  0  0  0  0  0  0  0  0  0  0
   19.2005   18.1177    1.1666 H   0  0  0  0  0  0  0  0  0  0  0  0
   21.4296   17.4099    3.3822 H   0  0  0  0  0  0  0  0  0  0  0  0
   20.6678   18.7048    3.7848 H   0  0  0  0  0  0  0  0  0  0  0  0
  2  1  1  0
  3  2  1  0
  4  3  2  0
  5  4  1  0
  6  5  2  0
  7  6  1  0
  7  3  1  0
  8  2  1  0
  9  8  1  0
 10  9  1  0
 11 10  1  0
 11  9  1  0
  1 12  1  0
  1 13  1  0
  1 14  1  0
  2 15  1  6
  4 16  1  0
  5 17  1  0
  6 18  1  0
  8 19  1  0
  8 20  1  0
  9 21  1  0
 10 22  1  0
 10 23  1  0
 11 24  1  0
 11 25  1  0
M  CHG  1   8   1
M  END
$$$$
=
     RDKit          3D

 16 17  0  0  0  0  0  0  0  0999 V2000
   23.6540   18.7680    5.3100 N   0  0  0  0  0  0  0  0  0  0  0  0
   22.5910   17.9250    5.3070 C   0  0  0  0  0  0  0  0  0  0  0  0
   21.7390   18.0420    4.2380 N   0  0  0  0  0  0  0  0  0  0  0  0
   20.6950   17.2760    4.1540 C   0  0  0  0  0  0  0  0  0  0  0  0
   19.8580   17.4320    3.0870 N   0  0  0  0  0  0  0  0  0  0  0  0
   20.4910   16.3340    5.1830 C   0  0  0  0  0  0  0  0  0  0  0  0
   21.4000   16.3000    6.1850 N   0  0  0  0  0  0  0  0  0  0  0  0
   22.4760   17.0810    6.2850 N   0  0  0  0  0  0  0  0  0  0  0  0
   21.0830   15.3570    7.0870 N   0  0  0  0  0  0  0  0  0  0  0  0
   19.9650   14.7650    6.6710 N   0  0  0  0  0  0  0  0  0  0  0  0
   19.5900   15.3530    5.4940 C   0  0  0  0  0  0  0  0  0  0  0  0
   24.3349   18.7355    6.0822 H   0  0  0  0  0  0  0  0  0  0  0  0
   23.7802   19.4405    4.5401 H   0  0  0  0  0  0  0  0  0  0  0  0
   19.0223   16.8367    2.9966 H   0  0  0  0  0  0  0  0  0  0  0  0
   20.0621   18.1450    2.3723 H   0  0  0  0  0  0  0  0  0  0  0  0
   18.7080   15.0812    4.8955 H   0  0  0  0  0  0  0  0  0  0  0  0
  2  1  1  0
  3  2  1  0
  4  3  2  0
  5  4  1  0
  6  4  1  0
  7  6  1  0
  8  7  1  0
  8  2  2  0
  9  7  1  0
 10  9  2  0
 11  6  2  0
 11 10  1  0
  1 12  1  0
  1 13  1  0
  5 14  1  0
  5 15  1  0
 11 16  1  0
M  END
$$$$
=
     RDKit          3D

 47 48  0  0  0  0  0  0  0  0999 V2000
   15.5390   14.7450    4.6520 N   0  0  0  0  0  0  0  0  0  0  0  0
   15.5790   15.4380    5.9360 C   0  0  0  0  0  0  0  0  0  0  0  0
   17.0480   15.8050    6.1140 C   0  0  0  0  0  0  0  0  0  0  0  0
   17.5030   16.1050    4.6910 C   0  0  2  0  0  0  0  0  0  0  0  0
   16.7470   15.0410    3.8640 C   0  0  0  0  0  0  0  0  0  0  0  0
   12.1080   12.8770    3.0220 C   0  0  0  0  0  0  0  0  0  0  0  0
   13.3890   12.4030    2.7270 C   0  0  0  0  0  0  0  0  0  0  0  0
   14.5200   13.0240    3.2730 C   0  0  0  0  0  0  0  0  0  0  0  0
   14.4260   14.1310    4.1280 C   0  0  0  0  0  0  0  0  0  0  0  0
   13.1310   14.5940    4.4010 C   0  0  0  0  0  0  0  0  0  0  0  0
   11.9890   13.9850    3.8640 C   0  0  0  0  0  0  0  0  0  0  0  0
   10.8960   12.2600    2.3970 C   0  0  0  0  0  0  0  0  0  0  0  0
   11.1900   10.8850    1.9410 N   0  0  0  0  0  4  0  0  0  0  0  0
   18.9450   16.0770    4.5610 N   0  0  0  0  0  0  0  0  0  0  0  0
   19.6100   16.9850    3.7920 C   0  0  0  0  0  0  0  0  0  0  0  0
   19.0790   17.7440    2.9990 O   0  0  0  0  0  0  0  0  0  0  0  0
   20.9290   16.9010    4.0690 O   0  0  0  0  0  0  0  0  0  0  0  0
   21.5150   17.6860    5.1410 C   0  0  0  0  0  0  0  0  0  0  0  0
   21.9250   16.6530    6.2020 C   0  0  0  0  0  0  0  0  0  0  0  0
   22.7700   18.4250    4.6660 C   0  0  0  0  0  0  0  0  0  0  0  0
   20.4850   18.6400    5.7580 C   0  0  0  0  0  0  0  0  0  0  0  0
   14.9509   16.3408    5.9124 H   0  0  0  0  0  0  0  0  0  0  0  0
   15.1947   14.8207    6.7614 H   0  0  0  0  0  0  0  0  0  0  0  0
   17.1590   16.6892    6.7589 H   0  0  0  0  0  0  0  0  0  0  0  0
   17.6366   15.0120    6.5985 H   0  0  0  0  0  0  0  0  0  0  0  0
   17.2693   17.1222    4.3438 H   0  0  0  0  0  0  0  0  0  0  0  0
   17.3612   14.1368    3.7409 H   0  0  0  0  0  0  0  0  0  0  0  0
   16.5068   15.3947    2.8505 H   0  0  0  0  0  0  0  0  0  0  0  0
   13.5103   11.5359    2.0611 H   0  0  0  0  0  0  0  0  0  0  0  0
   15.5157   12.6295    3.0222 H   0  0  0  0  0  0  0  0  0  0  0  0
   13.0072   15.4660    5.0600 H   0  0  0  0  0  0  0  0  0  0  0  0
   10.9924   14.3821    4.1071 H   0  0  0  0  0  0  0  0  0  0  0  0
   10.0830   12.2295    3.1374 H   0  0  0  0  0  0  0  0  0  0  0  0
   10.5968   12.8657    1.5289 H   0  0  0  0  0  0  0  0  0  0  0  0
   11.3209   10.2727    2.7588 H   0  0  0  0  0  0  0  0  0  0  0  0
   10.4046   10.5363    1.3732 H   0  0  0  0  0  0  0  0  0  0  0  0
   12.0494   10.8879    1.3732 H   0  0  0  0  0  0  0  0  0  0  0  0
   19.4809   15.3537    5.0615 H   0  0  0  0  0  0  0  0  0  0  0  0
   21.7587   17.0721    7.2053 H   0  0  0  0  0  0  0  0  0  0  0  0
   21.3201   15.7423    6.0801 H   0  0  0  0  0  0  0  0  0  0  0  0
   22.9897   16.4050    6.0801 H   0  0  0  0  0  0  0  0  0  0  0  0
   23.3475   18.7650    5.5383 H   0  0  0  0  0  0  0  0  0  0  0  0
   23.3876   17.7464    4.0593 H   0  0  0  0  0  0  0  0  0  0  0  0
   22.4761   19.2942    4.0593 H   0  0  0  0  0  0  0  0  0  0  0  0
   20.5449   18.5846    6.8550 H   0  0  0  0  0  0  0  0  0  0  0  0
   20.6960   19.6688    5.4308 H   0  0  0  0  0  0  0  0  0  0  0  0
   19.4754   18.3509    5.4308 H   0  0  0  0  0  0  0  0  0  0  0  0
  2  1  1  0
  3  2  1  0
  4  3  1  0
  5  1  1  0
  5  4  1  0
  7  6  2  0
  8  7  1  0
  9  8  2  0
  9  1  1  0
 10  9  1  0
 11 10  2  0
 11  6  1  0
 12  6  1  0
 13 12  1  0
 14  4  1  0
 15 14  1  0
 16 15  2  0
 17 15  1  0
 18 17  1  0
 19 18  1  0
 20 18  1  0
 21 18  1  0
  2 22  1  0
  2 23  1  0
  3 24  1  0
  3 25  1  0
  4 26  1  6
  5 27  1  0
  5 28  1  0
  7 29  1  0
  8 30  1  0
 10 31  1  0
 11 32  1  0
 12 33  1  0
 12 34  1  0
 13 35  1  0
 13 36  1  0
 13 37  1  0
 14 38  1  0
 19 39  1  0
 19 40  1  0
 19 41  1  0
 20 42  1  0
 20 43  1  0
 20 44  1  0
 21 45  1  0
 21 46  1  0
 21 47  1  0
M  CHG  1  13   1
M  END
$$$$
=
     RDKit          3D

 32 32  0  0  0  0  0  0  0  0999 V2000
   19.5450   18.0380    4.2330 C   0  0  0  0  0  0  0  0  0  0  0  0
   19.0180   16.6930    3.7550 C   0  0  0  0  0  0  0  0  0  0  0  0
   19.5750   16.1040    2.8290 O   0  0  0  0  0  0  0  0  0  0  0  0
   17.9110   16.1870    4.4040 N   0  0  0  0  0  0  0  0  0  0  0  0
   17.2110   16.8340    5.5210 C   0  0  0  0  0  0  0  0  0  0  0  0
   16.3390   15.8350    6.2890 C   0  0  0  0  0  0  0  0  0  0  0  0
   15.3600   15.1990    5.4610 O   0  0  0  0  0  0  0  0  0  0  0  0
   15.7980   14.9370    4.1200 C   0  0  0  0  0  0  0  0  0  0  0  0
   17.3200   14.9240    3.9480 C   0  0  0  0  0  0  0  0  0  0  0  0
   21.0780   18.0270    4.2950 C   0  0  0  0  0  0  0  0  0  0  0  0
   21.7620   16.4160    6.1570 C   0  0  0  0  0  0  0  0  0  0  0  0
   21.6380   17.8650    5.7050 C   0  0  1  0  0  0  0  0  0  0  0  0
   23.0060   18.4670    5.7200 N   0  0  0  0  0  4  0  0  0  0  0  0
   19.2171   18.8231    3.5358 H   0  0  0  0  0  0  0  0  0  0  0  0
   19.1510   18.2350    5.2409 H   0  0  0  0  0  0  0  0  0  0  0  0
   17.9546   17.2627    6.2090 H   0  0  0  0  0  0  0  0  0  0  0  0
   16.5587   17.6196    5.1119 H   0  0  0  0  0  0  0  0  0  0  0  0
   16.9899   15.0606    6.7211 H   0  0  0  0  0  0  0  0  0  0  0  0
   15.7997   16.3966    7.0660 H   0  0  0  0  0  0  0  0  0  0  0  0
   15.4080   13.9546    3.8154 H   0  0  0  0  0  0  0  0  0  0  0  0
   15.4164   15.7589    3.4965 H   0  0  0  0  0  0  0  0  0  0  0  0
   17.7416   14.0961    4.5370 H   0  0  0  0  0  0  0  0  0  0  0  0
   17.5511   14.7940    2.8804 H   0  0  0  0  0  0  0  0  0  0  0  0
   21.4437   17.1923    3.6790 H   0  0  0  0  0  0  0  0  0  0  0  0
   21.4198   19.0052    3.9259 H   0  0  0  0  0  0  0  0  0  0  0  0
   21.7656   16.3738    7.2562 H   0  0  0  0  0  0  0  0  0  0  0  0
   20.9101   15.8372    5.7706 H   0  0  0  0  0  0  0  0  0  0  0  0
   22.6999   15.9904    5.7706 H   0  0  0  0  0  0  0  0  0  0  0  0
   20.9360   18.3584    6.3933 H   0  0  0  0  0  0  0  0  0  0  0  0
   23.3113   18.6014    6.6945 H   0  0  0  0  0  0  0  0  0  0  0  0
   23.6634   17.8375    5.2379 H   0  0  0  0  0  0  0  0  0  0  0  0
   22.9860   19.3770    5.2379 H   0  0  0  0  0  0  0  0  0  0  0  0
  2  1  1  0
  3  2  2  0
  4  2  1  0
  5  4  1  0
  6  5  1  0
  7  6  1  0
  8  7  1  0
  9  8  1  0
  9  4  1  0
 10  1  1  0
 12 10  1  0
 12 11  1  0
 13 12  1  0
  1 14  1  0
  1 15  1  0
  5 16  1  0
  5 17  1  0
  6 18  1  0
  6 19  1  0
  8 20  1  0
  8 21  1  0
  9 22  1  0
  9 23  1  0
 10 24  1  0
 10 25  1  0
 11 26  1  0
 11 27  1  0
 11 28  1  0
 12 29  1  1
 13 30  1  0
 13 31  1  0
 13 32  1  0
M  CHG  1  13   1
M  END
$$$$
=
     RDKit          3D

 40 42  0  0  0  0  0  0  0  0999 V2000
   19.2830   15.7820    2.8180 O   0  0  0  0  0  0  0  0  0  0  0  0
   18.9780   15.2660    3.8820 C   0  0  0  0  0  0  0  0  0  0  0  0
   17.7440   14.8030    4.2160 N   0  0  0  0  0  0  0  0  0  0  0  0
   20.0060   15.0970    4.9390 C   0  0  2  0  0  0  0  0  0  0  0  0
   19.6450   15.0340    6.4030 C   0  0  0  0  0  0  0  0  0  0  0  0
   20.3570   16.2560    5.8720 C   0  0  0  0  0  0  0  0  0  0  0  0
   19.5720   17.5560    5.8300 C   0  0  0  0  0  0  0  0  0  0  0  0
   20.2350   18.5710    4.8980 C   0  0  0  0  0  0  0  0  0  0  0  0
   21.6710   18.7530    5.3030 N   0  0  0  0  0  4  0  0  0  0  0  0
   22.4600   17.4760    5.2770 C   0  0  0  0  0  0  0  0  0  0  0  0
   21.8190   16.4590    6.2220 C   0  0  0  0  0  0  0  0  0  0  0  0
   16.6170   14.8540    3.3040 C   0  0  0  0  0  0  0  0  0  0  0  0
   15.3500   14.4440    4.0500 C   0  0  0  0  0  0  0  0  0  0  0  0
   15.0740   14.9010    5.1580 O   0  0  0  0  0  0  0  0  0  0  0  0
   14.5710   13.5310    3.3660 N   0  0  0  0  0  0  0  0  0  0  0  0
   13.3460   13.0260    3.9020 C   0  0  0  0  0  0  0  0  0  0  0  0
   12.2310   12.5940    2.9900 C   0  0  0  0  0  0  0  0  0  0  0  0
   12.0850   13.8390    3.8140 C   0  0  0  0  0  0  0  0  0  0  0  0
   17.6038   14.4002    5.1535 H   0  0  0  0  0  0  0  0  0  0  0  0
   20.5612   14.4407    4.2527 H   0  0  0  0  0  0  0  0  0  0  0  0
   18.5913   15.1046    6.7108 H   0  0  0  0  0  0  0  0  0  0  0  0
   19.8382   14.3194    7.2167 H   0  0  0  0  0  0  0  0  0  0  0  0
   18.5537   17.3490    5.4692 H   0  0  0  0  0  0  0  0  0  0  0  0
   19.5447   17.9800    6.8447 H   0  0  0  0  0  0  0  0  0  0  0  0
   20.1890   18.2036    3.8622 H   0  0  0  0  0  0  0  0  0  0  0  0
   19.7077   19.5339    4.9669 H   0  0  0  0  0  0  0  0  0  0  0  0
   22.1111   19.4228    4.6560 H   0  0  0  0  0  0  0  0  0  0  0  0
   21.6737   19.0944    6.2748 H   0  0  0  0  0  0  0  0  0  0  0  0
   22.4681   17.0712    4.2542 H   0  0  0  0  0  0  0  0  0  0  0  0
   23.4918   17.6769    5.6012 H   0  0  0  0  0  0  0  0  0  0  0  0
   21.8960   16.8269    7.2558 H   0  0  0  0  0  0  0  0  0  0  0  0
   22.3456   15.4985    6.1209 H   0  0  0  0  0  0  0  0  0  0  0  0
   16.5019   15.8776    2.9180 H   0  0  0  0  0  0  0  0  0  0  0  0
   16.7901   14.1663    2.4631 H   0  0  0  0  0  0  0  0  0  0  0  0
   14.8828   13.2038    2.4405 H   0  0  0  0  0  0  0  0  0  0  0  0
   13.9125   12.5507    4.7164 H   0  0  0  0  0  0  0  0  0  0  0  0
   12.3530   12.6676    1.8993 H   0  0  0  0  0  0  0  0  0  0  0  0
   11.6436   11.6727    2.8623 H   0  0  0  0  0  0  0  0  0  0  0  0
   12.0997   14.8253    3.3272 H   0  0  0  0  0  0  0  0  0  0  0  0
   11.3459   14.2081    4.5403 H   0  0  0  0  0  0  0  0  0  0  0  0
  2  1  2  0
  3  2  1  0
  4  2  1  0
  5  4  1  0
  6  4  1  0
  6  5  1  0
  7  6  1  0
  8  7  1  0
  9  8  1  0
 10  9  1  0
 11  6  1  0
 11 10  1  0
 12  3  1  0
 13 12  1  0
 14 13  2  0
 15 13  1  0
 16 15  1  0
 17 16  1  0
 18 17  1  0
 18 16  1  0
  3 19  1  0
  4 20  1  6
  5 21  1  0
  5 22  1  0
  7 23  1  0
  7 24  1  0
  8 25  1  0
  8 26  1  0
  9 27  1  0
  9 28  1  0
 10 29  1  0
 10 30  1  0
 11 31  1  0
 11 32  1  0
 12 33  1  0
 12 34  1  0
 15 35  1  0
 16 36  1  0
 17 37  1  0
 17 38  1  0
 18 39  1  0
 18 40  1  0
M  CHG  1   9   1
M  END
$$$$
=
     RDKit          3D

 46 47  0  0  0  0  0  0  0  0999 V2000
   15.2030   13.6260    3.2600 C   0  0  0  0  0  0  0  0  0  0  0  0
   14.2630   12.7150    2.7660 C   0  0  0  0  0  0  0  0  0  0  0  0
   12.9080   12.7920    3.1340 C   0  0  0  0  0  0  0  0  0  0  0  0
   12.4850   13.8710    3.9370 C   0  0  0  0  0  0  0  0  0  0  0  0
   13.4210   14.7730    4.4560 C   0  0  0  0  0  0  0  0  0  0  0  0
   14.7720   14.6280    4.1430 C   0  0  0  0  0  0  0  0  0  0  0  0
   11.0490   14.0150    4.3020 C   0  0  0  0  0  0  0  0  0  0  0  0
   10.2140   14.3900    3.4880 O   0  0  0  0  0  0  0  0  0  0  0  0
   10.7010   13.7360    5.5950 N   0  0  0  0  0  0  0  0  0  0  0  0
   11.9950   11.9280    2.5000 N   0  0  0  0  0  0  0  0  0  0  0  0
   17.1620   12.3230    2.9460 C   0  0  0  0  0  0  0  0  0  0  0  0
   16.5420   13.6070    2.9510 O   0  0  0  0  0  0  0  0  0  0  0  0
   15.6240   15.5640    4.6700 O   0  0  0  0  0  0  0  0  0  0  0  0
   15.7300   15.4540    6.0920 C   0  0  0  0  0  0  0  0  0  0  0  0
   17.1230   15.9330    6.4860 C   0  0  0  0  0  0  0  0  0  0  0  0
   17.4860   17.2150    5.7560 C   0  0  0  0  0  0  0  0  0  0  0  0
   18.5950   16.9520    4.7580 N   0  0  0  0  0  4  0  0  0  0  0  0
   19.5870   18.1170    4.6990 C   0  0  0  0  0  0  0  0  0  0  0  0
   20.8800   17.6590    4.0230 C   0  0  0  0  0  0  0  0  0  0  0  0
   21.5500   16.6150    4.7390 O   0  0  0  0  0  0  0  0  0  0  0  0
   20.6980   15.8120    5.5620 C   0  0  0  0  0  0  0  0  0  0  0  0
   19.3070   15.6060    4.9550 C   0  0  0  0  0  0  0  0  0  0  0  0
   14.5903   11.9231    2.0763 H   0  0  0  0  0  0  0  0  0  0  0  0
   13.0916   15.5944    5.1093 H   0  0  0  0  0  0  0  0  0  0  0  0
    9.7191   13.8216    5.8940 H   0  0  0  0  0  0  0  0  0  0  0  0
   11.4209   13.4403    6.2697 H   0  0  0  0  0  0  0  0  0  0  0  0
   10.9961   11.9616    2.7490 H   0  0  0  0  0  0  0  0  0  0  0  0
   12.3259   11.2622    1.7871 H   0  0  0  0  0  0  0  0  0  0  0  0
   17.3230   11.9895    3.9818 H   0  0  0  0  0  0  0  0  0  0  0  0
   16.5119   11.6039    2.4262 H   0  0  0  0  0  0  0  0  0  0  0  0
   18.1294   12.3850    2.4262 H   0  0  0  0  0  0  0  0  0  0  0  0
   14.9665   16.0813    6.5752 H   0  0  0  0  0  0  0  0  0  0  0  0
   15.5728   14.4137    6.4130 H   0  0  0  0  0  0  0  0  0  0  0  0
   17.1464   16.1177    7.5701 H   0  0  0  0  0  0  0  0  0  0  0  0
   17.8511   15.1556    6.2111 H   0  0  0  0  0  0  0  0  0  0  0  0
   16.6007   17.5936    5.2242 H   0  0  0  0  0  0  0  0  0  0  0  0
   17.8309   17.9599    6.4882 H   0  0  0  0  0  0  0  0  0  0  0  0
   18.1303   16.8813    3.8415 H   0  0  0  0  0  0  0  0  0  0  0  0
   19.1462   18.9438    4.1228 H   0  0  0  0  0  0  0  0  0  0  0  0
   19.8108   18.4571    5.7209 H   0  0  0  0  0  0  0  0  0  0  0  0
   20.6368   17.2917    3.0151 H   0  0  0  0  0  0  0  0  0  0  0  0
   21.5587   18.5241    3.9940 H   0  0  0  0  0  0  0  0  0  0  0  0
   21.1697   14.8281    5.7011 H   0  0  0  0  0  0  0  0  0  0  0  0
   20.5668   16.3411    6.5174 H   0  0  0  0  0  0  0  0  0  0  0  0
   19.4089   15.1056    3.9807 H   0  0  0  0  0  0  0  0  0  0  0  0
   18.7100   14.9877    5.6416 H   0  0  0  0  0  0  0  0  0  0  0  0
  2  1  2  0
  3  2  1  0
  4  3  2  0
  5  4  1  0
  6  5  2  0
  6  1  1  0
  7  4  1  0
  8  7  2  0
  9  7  1  0
 10  3  1  0
 12  1  1  0
 12 11  1  0
 13  6  1  0
 14 13  1  0
 15 14  1  0
 16 15  1  0
 17 16  1  0
 18 17  1  0
 19 18  1  0
 20 19  1  0
 21 20  1  0
 22 21  1  0
 22 17  1  0
  2 23  1  0
  5 24  1  0
  9 25  1  0
  9 26  1  0
 10 27  1  0
 10 28  1  0
 11 29  1  0
 11 30  1  0
 11 31  1  0
 14 32  1  0
 14 33  1  0
 15 34  1  0
 15 35  1  0
 16 36  1  0
 16 37  1  0
 17 38  1  0
 18 39  1  0
 18 40  1  0
 19 41  1  0
 19 42  1  0
 21 43  1  0
 21 44  1  0
 22 45  1  0
 22 46  1  0
M  CHG  1  17   1
M  END
$$$$
=
     RDKit          3D

 44 44  0  0  0  0  0  0  0  0999 V2000
   28.5780   27.6560   16.9870 C   0  0  1  0  0  0  0  0  0  0  0  0
   27.1300   27.3950   17.3310 N   0  0  0  0  0  4  0  0  0  0  0  0
   26.2950   26.7990   16.2400 C   0  0  0  0  0  0  0  0  0  0  0  0
   26.9670   25.5650   15.6520 C   0  0  0  0  0  0  0  0  0  0  0  0
   28.3570   25.8040   15.2430 N   0  0  0  0  0  0  0  0  0  0  0  0
   29.2370   26.4300   16.2630 C   0  0  1  0  0  0  0  0  0  0  0  0
   30.6650   26.7900   15.8320 C   0  0  0  0  0  0  0  0  0  0  0  0
   28.8980   24.9790   14.2460 C   0  0  0  0  0  0  0  0  0  0  0  0
   30.0910   24.8540   14.0290 O   0  0  0  0  0  0  0  0  0  0  0  0
   28.7720   29.0840   16.4270 C   0  0  0  0  0  0  0  0  0  0  0  0
   28.2480   29.2550   13.9110 C   0  0  0  0  0  0  0  0  0  0  0  0
   27.8690   29.6450   15.3270 C   0  0  0  0  0  0  0  0  0  0  0  0
   27.9330   24.3410   13.5370 O   0  0  0  0  0  0  0  0  0  0  0  0
   27.6840   24.6640   12.1400 C   0  0  0  0  0  0  0  0  0  0  0  0
   28.2260   26.0530   11.7850 C   0  0  0  0  0  0  0  0  0  0  0  0
   26.1530   24.6900   12.0170 C   0  0  0  0  0  0  0  0  0  0  0  0
   28.2310   23.5760   11.2100 C   0  0  0  0  0  0  0  0  0  0  0  0
   29.2038   27.7023   17.8905 H   0  0  0  0  0  0  0  0  0  0  0  0
   27.1078   26.7497   18.1335 H   0  0  0  0  0  0  0  0  0  0  0  0
   26.7185   28.3195   17.5231 H   0  0  0  0  0  0  0  0  0  0  0  0
   25.3155   26.5138   16.6514 H   0  0  0  0  0  0  0  0  0  0  0  0
   26.1744   27.5466   15.4422 H   0  0  0  0  0  0  0  0  0  0  0  0
   26.9574   24.7672   16.4092 H   0  0  0  0  0  0  0  0  0  0  0  0
   26.4039   25.2843   14.7497 H   0  0  0  0  0  0  0  0  0  0  0  0
   29.3516   25.5969   16.9720 H   0  0  0  0  0  0  0  0  0  0  0  0
   31.2887   26.9472   16.7244 H   0  0  0  0  0  0  0  0  0  0  0  0
   31.0846   25.9695   15.2313 H   0  0  0  0  0  0  0  0  0  0  0  0
   30.6454   27.7113   15.2313 H   0  0  0  0  0  0  0  0  0  0  0  0
   28.6777   29.7678   17.2835 H   0  0  0  0  0  0  0  0  0  0  0  0
   29.7430   29.0056   15.9161 H   0  0  0  0  0  0  0  0  0  0  0  0
   29.0143   28.4664   13.9405 H   0  0  0  0  0  0  0  0  0  0  0  0
   27.3582   28.8819   13.3828 H   0  0  0  0  0  0  0  0  0  0  0  0
   28.6464   30.1338   13.3828 H   0  0  0  0  0  0  0  0  0  0  0  0
   27.8938   30.7426   15.3947 H   0  0  0  0  0  0  0  0  0  0  0  0
   26.8728   29.2132   15.5036 H   0  0  0  0  0  0  0  0  0  0  0  0
   28.4430   26.6091   12.7090 H   0  0  0  0  0  0  0  0  0  0  0  0
   29.1487   25.9469   11.1956 H   0  0  0  0  0  0  0  0  0  0  0  0
   27.4753   26.5999   11.1956 H   0  0  0  0  0  0  0  0  0  0  0  0
   25.7045   24.6976   13.0214 H   0  0  0  0  0  0  0  0  0  0  0  0
   25.8443   25.5935   11.4708 H   0  0  0  0  0  0  0  0  0  0  0  0
   25.8138   23.7975   11.4708 H   0  0  0  0  0  0  0  0  0  0  0  0
   28.6446   22.7533   11.8117 H   0  0  0  0  0  0  0  0  0  0  0  0
   27.4181   23.1934   10.5753 H   0  0  0  0  0  0  0  0  0  0  0  0
   29.0230   24.0003   10.5753 H   0  0  0  0  0  0  0  0  0  0  0  0
  2  1  1  0
  3  2  1  0
  4  3  1  0
  5  4  1  0
  6  5  1  0
  6  1  1  0
  7  6  1  0
  8  5  1  0
  9  8  2  0
 10  1  1  0
 12 11  1  0
 12 10  1  0
 13  8  1  0
 14 13  1  0
 15 14  1  0
 16 14  1  0
 17 14  1  0
  1 18  1  1
  2 19  1  0
  2 20  1  0
  3 21  1  0
  3 22  1  0
  4 23  1  0
  4 24  1  0
  6 25  1  1
  7 26  1  0
  7 27  1  0
  7 28  1  0
 10 29  1  0
 10 30  1  0
 11 31  1  0
 11 32  1  0
 11 33  1  0
 12 34  1  0
 12 35  1  0
 15 36  1  0
 15 37  1  0
 15 38  1  0
 16 39  1  0
 16 40  1  0
 16 41  1  0
 17 42  1  0
 17 43  1  0
 17 44  1  0
M  CHG  1   2   1
M  END
$$$$
=
     RDKit          3D

 29 29  0  0  0  0  0  0  0  0999 V2000
   26.1110   25.2950   11.7710 C   0  0  1  0  0  0  0  0  0  0  0  0
   25.5730   25.1710   13.0880 O   0  0  0  0  0  0  0  0  0  0  0  0
   26.5590   25.3900   14.1260 C   0  0  2  0  0  0  0  0  0  0  0  0
   27.6710   24.3070   14.0310 C   0  0  2  0  0  0  0  0  0  0  0  0
   28.1980   24.1530   12.6000 C   0  0  2  0  0  0  0  0  0  0  0  0
   27.1020   24.1550   11.5280 C   0  0  2  0  0  0  0  0  0  0  0  0
   27.1300   22.9960   14.5060 N   0  0  0  0  0  4  0  0  0  0  0  0
   27.7380   24.2460   10.2430 O   0  0  0  0  0  0  0  0  0  0  0  0
   28.9630   22.9340   12.4680 O   0  0  0  0  0  0  0  0  0  0  0  0
   24.9250   25.2430   10.8010 C   0  0  0  0  0  0  0  0  0  0  0  0
   25.0140   24.0870    9.9680 O   0  0  0  0  0  0  0  0  0  0  0  0
   25.8640   25.3490   15.3520 O   0  0  0  0  0  0  0  0  0  0  0  0
   25.9950   26.7040   16.2550 P   0  0  0  0  0  5  0  0  0  0  0  0
   25.9290   27.8260   15.2590 O   0  0  0  0  0  0  0  0  0  0  0  0
   24.7750   26.5380   17.1620 O   0  0  0  0  0  1  0  0  0  0  0  0
   27.3020   26.4690   16.9840 O   0  0  0  0  0  1  0  0  0  0  0  0
   26.6586   26.2383   11.6286 H   0  0  0  0  0  0  0  0  0  0  0  0
   27.0668   26.3605   14.0244 H   0  0  0  0  0  0  0  0  0  0  0  0
   28.5098   24.6281   14.6661 H   0  0  0  0  0  0  0  0  0  0  0  0
   28.8293   25.0375   12.4294 H   0  0  0  0  0  0  0  0  0  0  0  0
   26.5150   23.2257   11.5699 H   0  0  0  0  0  0  0  0  0  0  0  0
   27.1235   22.9801   15.5359 H   0  0  0  0  0  0  0  0  0  0  0  0
   26.1696   22.8733   14.1546 H   0  0  0  0  0  0  0  0  0  0  0  0
   27.7244   22.2317   14.1546 H   0  0  0  0  0  0  0  0  0  0  0  0
   28.7105   24.3851   10.3652 H   0  0  0  0  0  0  0  0  0  0  0  0
   29.1830   22.5834   13.3673 H   0  0  0  0  0  0  0  0  0  0  0  0
   23.9880   25.2043   11.3759 H   0  0  0  0  0  0  0  0  0  0  0  0
   24.9426   26.1419   10.1672 H   0  0  0  0  0  0  0  0  0  0  0  0
   25.0764   23.2768   10.5335 H   0  0  0  0  0  0  0  0  0  0  0  0
  2  1  1  0
  3  2  1  0
  4  3  1  0
  5  4  1  0
  6  1  1  0
  6  5  1  0
  7  4  1  0
  8  6  1  0
  9  5  1  0
 10  1  1  0
 11 10  1  0
 12  3  1  0
 13 12  1  0
 14 13  2  0
 15 13  1  0
 16 13  1  0
  1 17  1  1
  3 18  1  6
  4 19  1  1
  5 20  1  6
  6 21  1  6
  7 22  1  0
  7 23  1  0
  7 24  1  0
  8 25  1  0
  9 26  1  0
 10 27  1  0
 10 28  1  0
 11 29  1  0
M  CHG  3   7   1  15  -1  16  -1
M  END
$$$$
=
     RDKit          3D

 39 41  0  0  0  0  0  0  0  0999 V2000
   22.1290   18.3790    5.0930 C   0  0  0  0  0  0  0  0  0  0  0  0
   20.8870   17.5450    5.3960 C   0  0  0  0  0  0  0  0  0  0  0  0
   19.6560   18.1210    4.6910 C   0  0  0  0  0  0  0  0  0  0  0  0
   18.4200   17.2530    4.9270 C   0  0  0  0  0  0  0  0  0  0  0  0
   18.6790   15.8620    4.5020 N   0  0  0  0  0  0  0  0  0  0  0  0
   19.8270   15.2620    5.2060 C   0  0  0  0  0  0  0  0  0  0  0  0
   21.0900   16.0870    4.9690 C   0  0  0  0  0  0  0  0  0  0  0  0
   17.5910   15.0770    4.1700 C   0  0  0  0  0  0  0  0  0  0  0  0
   16.3670   15.4260    4.4430 N   0  0  0  0  0  0  0  0  0  0  0  0
   15.3410   14.5990    4.0710 C   0  0  0  0  0  0  0  0  0  0  0  0
   13.9590   15.0580    4.4710 C   0  0  0  0  0  0  0  0  0  0  0  0
   12.9110   13.9460    4.3860 C   0  0  0  0  0  0  0  0  0  0  0  0
   13.0620   13.1950    3.0980 N   0  0  0  0  0  4  0  0  0  0  0  0
   14.4170   12.5550    2.9590 C   0  0  0  0  0  0  0  0  0  0  0  0
   15.5120   13.4510    3.4010 C   0  0  0  0  0  0  0  0  0  0  0  0
   16.8840   13.0640    3.0570 C   0  0  0  0  0  0  0  0  0  0  0  0
   17.0980   12.0480    2.4080 O   0  0  0  0  0  0  0  0  0  0  0  0
   17.8530   13.9100    3.5020 N   0  0  0  0  0  0  0  0  0  0  0  0
   22.5983   18.6941    6.0367 H   0  0  0  0  0  0  0  0  0  0  0  0
   22.8426   17.7763    4.5120 H   0  0  0  0  0  0  0  0  0  0  0  0
   21.8412   19.2676    4.5120 H   0  0  0  0  0  0  0  0  0  0  0  0
   20.7222   17.5782    6.4831 H   0  0  0  0  0  0  0  0  0  0  0  0
   19.4623   19.1322    5.0784 H   0  0  0  0  0  0  0  0  0  0  0  0
   19.8579   18.1487    3.6100 H   0  0  0  0  0  0  0  0  0  0  0  0
   18.1684   17.2640    5.9978 H   0  0  0  0  0  0  0  0  0  0  0  0
   17.5830   17.6562    4.3380 H   0  0  0  0  0  0  0  0  0  0  0  0
   19.6133   15.2289    6.2845 H   0  0  0  0  0  0  0  0  0  0  0  0
   19.9889   14.2447    4.8202 H   0  0  0  0  0  0  0  0  0  0  0  0
   21.9162   15.6540    5.5519 H   0  0  0  0  0  0  0  0  0  0  0  0
   21.3224   16.0677    3.8940 H   0  0  0  0  0  0  0  0  0  0  0  0
   13.9978   15.4245    5.5074 H   0  0  0  0  0  0  0  0  0  0  0  0
   13.6582   15.8478    3.7669 H   0  0  0  0  0  0  0  0  0  0  0  0
   13.0463   13.2530    5.2295 H   0  0  0  0  0  0  0  0  0  0  0  0
   11.9068   14.3931    4.4270 H   0  0  0  0  0  0  0  0  0  0  0  0
   12.3432   12.4583    3.0591 H   0  0  0  0  0  0  0  0  0  0  0  0
   12.9545   13.8703    2.3277 H   0  0  0  0  0  0  0  0  0  0  0  0
   14.4403   11.6405    3.5698 H   0  0  0  0  0  0  0  0  0  0  0  0
   14.5752   12.3316    1.8936 H   0  0  0  0  0  0  0  0  0  0  0  0
   18.8365   13.6592    3.3270 H   0  0  0  0  0  0  0  0  0  0  0  0
  2  1  1  0
  3  2  1  0
  4  3  1  0
  5  4  1  0
  6  5  1  0
  7  6  1  0
  7  2  1  0
  8  5  1  0
  9  8  2  0
 10  9  1  0
 11 10  1  0
 12 11  1  0
 13 12  1  0
 14 13  1  0
 15 14  1  0
 15 10  2  0
 16 15  1  0
 17 16  2  0
 18 16  1  0
 18  8  1  0
  1 19  1  0
  1 20  1  0
  1 21  1  0
  2 22  1  0
  3 23  1  0
  3 24  1  0
  4 25  1  0
  4 26  1  0
  6 27  1  0
  6 28  1  0
  7 29  1  0
  7 30  1  0
 11 31  1  0
 11 32  1  0
 12 33  1  0
 12 34  1  0
 13 35  1  0
 13 36  1  0
 14 37  1  0
 14 38  1  0
 18 39  1  0
M  CHG  1  13   1
M  END
$$$$
=
     RDKit          3D

 36 36  0  0  0  0  0  0  0  0999 V2000
   19.8010   17.5800    2.0510 C   0  0  0  0  0  0  0  0  0  0  0  0
   19.2290   17.5150    3.4710 C   0  0  2  0  0  0  0  0  0  0  0  0
   20.1290   18.2830    4.4610 C   0  0  0  0  0  0  0  0  0  0  0  0
   21.4110   17.5450    4.8220 C   0  0  0  0  0  0  0  0  0  0  0  0
   21.0720   16.1740    5.2920 N   0  0  0  0  0  4  0  0  0  0  0  0
   20.3110   15.3500    4.2980 C   0  0  0  0  0  0  0  0  0  0  0  0
   19.0100   16.0520    3.9090 C   0  0  1  0  0  0  0  0  0  0  0  0
   18.0770   15.9990    5.1010 C   0  0  0  0  0  0  0  0  0  0  0  0
   18.4610   15.6260    6.2030 O   0  0  0  0  0  0  0  0  0  0  0  0
   16.8460   16.4410    4.7670 O   0  0  0  0  0  0  0  0  0  0  0  0
   15.6990   15.5460    4.7640 C   0  0  0  0  0  0  0  0  0  0  0  0
   15.9250   14.3630    3.8180 C   0  0  0  0  0  0  0  0  0  0  0  0
   15.3570   15.0860    6.1850 C   0  0  0  0  0  0  0  0  0  0  0  0
   14.5380   16.3950    4.2260 C   0  0  0  0  0  0  0  0  0  0  0  0
   20.8928   17.7041    2.1008 H   0  0  0  0  0  0  0  0  0  0  0  0
   19.5618   16.6489    1.5164 H   0  0  0  0  0  0  0  0  0  0  0  0
   19.3590   18.4337    1.5164 H   0  0  0  0  0  0  0  0  0  0  0  0
   18.2455   18.0076    3.4723 H   0  0  0  0  0  0  0  0  0  0  0  0
   20.3997   19.2479    4.0075 H   0  0  0  0  0  0  0  0  0  0  0  0
   19.5543   18.4029    5.3913 H   0  0  0  0  0  0  0  0  0  0  0  0
   22.0598   17.4801    3.9361 H   0  0  0  0  0  0  0  0  0  0  0  0
   21.9379   18.0890    5.6198 H   0  0  0  0  0  0  0  0  0  0  0  0
   21.9499   15.6828    5.5129 H   0  0  0  0  0  0  0  0  0  0  0  0
   20.4584   16.2872    6.1115 H   0  0  0  0  0  0  0  0  0  0  0  0
   20.9279   15.2057    3.3988 H   0  0  0  0  0  0  0  0  0  0  0  0
   20.0699   14.3770    4.7510 H   0  0  0  0  0  0  0  0  0  0  0  0
   18.5781   15.5319    3.0413 H   0  0  0  0  0  0  0  0  0  0  0  0
   16.0993   13.4505    4.4071 H   0  0  0  0  0  0  0  0  0  0  0  0
   15.0368   14.2258    3.1837 H   0  0  0  0  0  0  0  0  0  0  0  0
   16.8012   14.5629    3.1837 H   0  0  0  0  0  0  0  0  0  0  0  0
   15.8490   15.7478    6.9130 H   0  0  0  0  0  0  0  0  0  0  0  0
   14.2675   15.1259    6.3311 H   0  0  0  0  0  0  0  0  0  0  0  0
   15.7090   14.0541    6.3311 H   0  0  0  0  0  0  0  0  0  0  0  0
   13.9675   16.8122    5.0689 H   0  0  0  0  0  0  0  0  0  0  0  0
   14.9376   17.2155    3.6119 H   0  0  0  0  0  0  0  0  0  0  0  0
   13.8773   15.7655    3.6119 H   0  0  0  0  0  0  0  0  0  0  0  0
  2  1  1  0
  3  2  1  0
  4  3  1  0
  5  4  1  0
  6  5  1  0
  7  6  1  0
  7  2  1  0
  8  7  1  0
  9  8  2  0
 10  8  1  0
 11 10  1  0
 12 11  1  0
 13 11  1  0
 14 11  1  0
  1 15  1  0
  1 16  1  0
  1 17  1  0
  2 18  1  6
  3 19  1  0
  3 20  1  0
  4 21  1  0
  4 22  1  0
  5 23  1  0
  5 24  1  0
  6 25  1  0
  6 26  1  0
  7 27  1  6
 12 28  1  0
 12 29  1  0
 12 30  1  0
 13 31  1  0
 13 32  1  0
 13 33  1  0
 14 34  1  0
 14 35  1  0
 14 36  1  0
M  CHG  1   5   1
M  END
$$$$
=
     RDKit          3D

 31 33  0  0  0  0  0  0  0  0999 V2000
   17.7400   14.1640    3.7350 N   0  0  0  0  0  0  0  0  0  0  0  0
   18.3160   13.0750    3.1380 C   0  0  0  0  0  0  0  0  0  0  0  0
   17.4150   12.2130    2.7110 N   0  0  0  0  0  0  0  0  0  0  0  0
   16.2070   12.7740    3.0440 C   0  0  0  0  0  0  0  0  0  0  0  0
   16.3850   13.9900    3.6800 C   0  0  0  0  0  0  0  0  0  0  0  0
   15.4310   14.8110    4.1480 N   0  0  0  0  0  0  0  0  0  0  0  0
   14.1990   14.3160    3.9460 C   0  0  0  0  0  0  0  0  0  0  0  0
   13.1390   15.0860    4.3790 N   0  0  0  0  0  0  0  0  0  0  0  0
   13.8860   13.1630    3.3290 N   0  0  0  0  0  0  0  0  0  0  0  0
   14.8910   12.3680    2.8730 C   0  0  0  0  0  0  0  0  0  0  0  0
   19.2720   17.2740    3.4090 C   0  0  1  0  0  0  0  0  0  0  0  0
   18.0560   16.5140    3.6360 O   0  0  0  0  0  0  0  0  0  0  0  0
   18.4000   15.2990    4.3450 C   0  0  2  0  0  0  0  0  0  0  0  0
   19.9170   15.1930    4.3480 C   0  0  0  0  0  0  0  0  0  0  0  0
   20.3350   16.6420    4.2990 C   0  0  2  0  0  0  0  0  0  0  0  0
   20.2880   17.1790    5.6240 O   0  0  0  0  0  0  0  0  0  0  0  0
   19.6060   17.1900    1.9170 C   0  0  0  0  0  0  0  0  0  0  0  0
   20.7290   18.0210    1.6280 O   0  0  0  0  0  0  0  0  0  0  0  0
   19.4016   12.9359    3.0278 H   0  0  0  0  0  0  0  0  0  0  0  0
   12.1732   14.7527    4.2484 H   0  0  0  0  0  0  0  0  0  0  0  0
   13.3136   15.9940    4.8328 H   0  0  0  0  0  0  0  0  0  0  0  0
   14.6633   11.4143    2.3744 H   0  0  0  0  0  0  0  0  0  0  0  0
   19.1879   18.3416    3.6604 H   0  0  0  0  0  0  0  0  0  0  0  0
   18.0510   15.3159    5.3880 H   0  0  0  0  0  0  0  0  0  0  0  0
   20.2812   14.7031    5.2630 H   0  0  0  0  0  0  0  0  0  0  0  0
   20.3201   14.5878    3.5226 H   0  0  0  0  0  0  0  0  0  0  0  0
   21.3534   16.8139    3.9204 H   0  0  0  0  0  0  0  0  0  0  0  0
   20.3525   16.4416    6.2814 H   0  0  0  0  0  0  0  0  0  0  0  0
   19.8442   16.1489    1.6537 H   0  0  0  0  0  0  0  0  0  0  0  0
   18.7402   17.5307    1.3302 H   0  0  0  0  0  0  0  0  0  0  0  0
   21.1408   18.3257    2.4752 H   0  0  0  0  0  0  0  0  0  0  0  0
  2  1  1  0
  3  2  2  0
  4  3  1  0
  5  4  2  0
  5  1  1  0
  6  5  1  0
  7  6  2  0
  8  7  1  0
  9  7  1  0
 10  9  2  0
 10  4  1  0
 12 11  1  0
 13  1  1  0
 13 12  1  0
 14 13  1  0
 15 14  1  0
 15 11  1  0
 16 15  1  0
 17 11  1  0
 18 17  1  0
  2 19  1  0
  8 20  1  0
  8 21  1  0
 10 22  1  0
 11 23  1  1
 13 24  1  1
 14 25  1  0
 14 26  1  0
 15 27  1  6
 16 28  1  0
 17 29  1  0
 17 30  1  0
 18 31  1  0
M  END
$$$$
=
     RDKit          3D

 58 61  0  0  0  0  0  0  0  0999 V2000
   27.0960   28.0330   15.6080 C   0  0  2  0  0  0  0  0  0  0  0  0
   26.2470   29.1940   15.4670 O   0  0  0  0  0  0  0  0  0  0  0  0
   26.4340   27.1270   16.6530 C   0  0  0  0  0  0  0  0  0  0  0  0
   25.1130   27.7330   17.0110 N   0  0  0  0  0  4  0  0  0  0  0  0
   23.9840   26.7930   17.2880 C   0  0  0  0  0  0  0  0  0  0  0  0
   23.0240   26.8290   16.0980 C   0  0  0  0  0  0  0  0  0  0  0  0
   23.7440   27.3880   14.9850 O   0  0  0  0  0  0  0  0  0  0  0  0
   22.9130   26.8170   12.7690 C   0  0  0  0  0  0  0  0  0  0  0  0
   22.9860   25.9470   11.6760 C   0  0  0  0  0  0  0  0  0  0  0  0
   23.8780   24.8740   11.7050 C   0  0  0  0  0  0  0  0  0  0  0  0
   24.7060   24.6540   12.7990 C   0  0  0  0  0  0  0  0  0  0  0  0
   24.6380   25.5100   13.8950 C   0  0  0  0  0  0  0  0  0  0  0  0
   23.7290   26.5670   13.8870 C   0  0  0  0  0  0  0  0  0  0  0  0
   21.0680   28.0280   11.8680 C   0  0  0  0  0  0  0  0  0  0  0  0
   22.1010   27.9220   12.8450 O   0  0  0  0  0  0  0  0  0  0  0  0
   23.9830   24.0040   10.6610 O   0  0  0  0  0  0  0  0  0  0  0  0
   28.5020   28.4670   16.0330 C   0  0  0  0  0  0  0  0  0  0  0  0
   29.4340   27.9060   15.0970 O   0  0  0  0  0  0  0  0  0  0  0  0
   29.7560   26.6230   15.5010 C   0  0  0  0  0  0  0  0  0  0  0  0
   30.3200   26.4780   16.7750 C   0  0  0  0  0  0  0  0  0  0  0  0
   30.7100   25.2220   17.2290 C   0  0  0  0  0  0  0  0  0  0  0  0
   30.5450   24.0860   16.4300 C   0  0  0  0  0  0  0  0  0  0  0  0
   29.9490   24.2490   15.1730 C   0  0  0  0  0  0  0  0  0  0  0  0
   29.5190   25.4860   14.6910 C   0  0  0  0  0  0  0  0  0  0  0  0
   28.9140   25.2530   13.4090 C   0  0  0  0  0  0  0  0  0  0  0  0
   28.2510   26.0650   12.4620 C   0  0  0  0  0  0  0  0  0  0  0  0
   27.7860   25.5050   11.2670 C   0  0  0  0  0  0  0  0  0  0  0  0
   27.9680   24.1510   11.0040 C   0  0  0  0  0  0  0  0  0  0  0  0
   28.6010   23.3180   11.9290 C   0  0  0  0  0  0  0  0  0  0  0  0
   29.0540   23.8950   13.1220 C   0  0  0  0  0  0  0  0  0  0  0  0
   29.6670   23.3130   14.2060 N   0  0  0  0  0  0  0  0  0  0  0  0
   27.2074   27.4871   14.6596 H   0  0  0  0  0  0  0  0  0  0  0  0
   25.9994   29.5326   16.3637 H   0  0  0  0  0  0  0  0  0  0  0  0
   26.2833   26.1209   16.2347 H   0  0  0  0  0  0  0  0  0  0  0  0
   27.0714   27.0391   17.5452 H   0  0  0  0  0  0  0  0  0  0  0  0
   25.2534   28.3063   17.8551 H   0  0  0  0  0  0  0  0  0  0  0  0
   24.8240   28.2558   16.1719 H   0  0  0  0  0  0  0  0  0  0  0  0
   24.3737   25.7729   17.4204 H   0  0  0  0  0  0  0  0  0  0  0  0
   23.4589   27.0928   18.2069 H   0  0  0  0  0  0  0  0  0  0  0  0
   22.6870   25.8104   15.8551 H   0  0  0  0  0  0  0  0  0  0  0  0
   22.1362   27.4350   16.3317 H   0  0  0  0  0  0  0  0  0  0  0  0
   22.3434   26.1078   10.7978 H   0  0  0  0  0  0  0  0  0  0  0  0
   25.4105   23.8092   12.7992 H   0  0  0  0  0  0  0  0  0  0  0  0
   25.2972   25.3533   14.7615 H   0  0  0  0  0  0  0  0  0  0  0  0
   20.0954   28.1278   12.3721 H   0  0  0  0  0  0  0  0  0  0  0  0
   21.2475   28.9124   11.2391 H   0  0  0  0  0  0  0  0  0  0  0  0
   21.0641   27.1255   11.2391 H   0  0  0  0  0  0  0  0  0  0  0  0
   24.6239   23.2508   10.7068 H   0  0  0  0  0  0  0  0  0  0  0  0
   28.5746   29.5645   16.0217 H   0  0  0  0  0  0  0  0  0  0  0  0
   28.7216   28.1163   17.0522 H   0  0  0  0  0  0  0  0  0  0  0  0
   30.4550   27.3599   17.4185 H   0  0  0  0  0  0  0  0  0  0  0  0
   31.1543   25.1210   18.2302 H   0  0  0  0  0  0  0  0  0  0  0  0
   30.8731   23.0954   16.7779 H   0  0  0  0  0  0  0  0  0  0  0  0
   28.1005   27.1358   12.6637 H   0  0  0  0  0  0  0  0  0  0  0  0
   27.2727   26.1401   10.5300 H   0  0  0  0  0  0  0  0  0  0  0  0
   27.6080   23.7304   10.0535 H   0  0  0  0  0  0  0  0  0  0  0  0
   28.7391   22.2455   11.7275 H   0  0  0  0  0  0  0  0  0  0  0  0
   29.8859   22.3095   14.2836 H   0  0  0  0  0  0  0  0  0  0  0  0
  2  1  1  0
  3  1  1  0
  4  3  1  0
  5  4  1  0
  6  5  1  0
  7  6  1  0
  9  8  2  0
 10  9  1  0
 11 10  2  0
 12 11  1  0
 13 12  2  0
 13  8  1  0
 13  7  1  0
 15 14  1  0
 15  8  1  0
 16 10  1  0
 17  1  1  0
 18 17  1  0
 19 18  1  0
 20 19  2  0
 21 20  1  0
 22 21  2  0
 23 22  1  0
 24 23  2  0
 24 19  1  0
 25 24  1  0
 26 25  2  0
 27 26  1  0
 28 27  2  0
 29 28  1  0
 30 29  2  0
 30 25  1  0
 31 30  1  0
 31 23  1  0
  1 32  1  6
  2 33  1  0
  3 34  1  0
  3 35  1  0
  4 36  1  0
  4 37  1  0
  5 38  1  0
  5 39  1  0
  6 40  1  0
  6 41  1  0
  9 42  1  0
 11 43  1  0
 12 44  1  0
 14 45  1  0
 14 46  1  0
 14 47  1  0
 16 48  1  0
 17 49  1  0
 17 50  1  0
 20 51  1  0
 21 52  1  0
 22 53  1  0
 26 54  1  0
 27 55  1  0
 28 56  1  0
 29 57  1  0
 31 58  1  0
M  CHG  1   4   1
M  END
$$$$
=
     RDKit          3D

 34 35  0  0  0  0  0  0  0  0999 V2000
   19.7670   16.7550    4.6420 C   0  0  0  0  0  0  0  0  0  0  0  0
   21.1080   16.9650    5.0290 C   0  0  0  0  0  0  0  0  0  0  0  0
   21.6600   16.1510    6.0270 C   0  0  0  0  0  0  0  0  0  0  0  0
   20.9160   15.1240    6.6090 C   0  0  0  0  0  0  0  0  0  0  0  0
   19.6090   14.8880    6.1970 C   0  0  0  0  0  0  0  0  0  0  0  0
   19.0250   15.6950    5.2120 C   0  0  0  0  0  0  0  0  0  0  0  0
   17.6430   15.4050    4.7860 C   0  0  0  0  0  0  0  0  0  0  0  0
   17.4160   14.5290    3.7890 C   0  0  0  0  0  0  0  0  0  0  0  0
   16.0560   14.2590    3.2440 C   0  0  0  0  0  0  0  0  0  0  0  0
   15.0750   15.3010    3.6660 N   0  0  0  0  0  4  0  0  0  0  0  0
   15.1500   15.5990    5.1300 C   0  0  0  0  0  0  0  0  0  0  0  0
   16.5330   16.1580    5.4750 C   0  0  0  0  0  0  0  0  0  0  0  0
   19.5530   17.2370    2.3260 C   0  0  0  0  0  0  0  0  0  0  0  0
   19.1110   17.4730    3.6620 O   0  0  0  0  0  0  0  0  0  0  0  0
   21.8080   17.9460    4.3820 O   0  0  0  0  0  0  0  0  0  0  0  0
   23.0230   18.4010    4.9650 C   0  0  0  0  0  0  0  0  0  0  0  0
   22.6951   16.3241    6.3565 H   0  0  0  0  0  0  0  0  0  0  0  0
   21.3645   14.4995    7.3957 H   0  0  0  0  0  0  0  0  0  0  0  0
   19.0323   14.0657    6.6456 H   0  0  0  0  0  0  0  0  0  0  0  0
   18.2721   13.9891    3.3581 H   0  0  0  0  0  0  0  0  0  0  0  0
   16.1089   14.2434    2.1454 H   0  0  0  0  0  0  0  0  0  0  0  0
   15.7159   13.2892    3.6363 H   0  0  0  0  0  0  0  0  0  0  0  0
   15.2671   16.1669    3.1424 H   0  0  0  0  0  0  0  0  0  0  0  0
   14.1307   14.9403    3.4680 H   0  0  0  0  0  0  0  0  0  0  0  0
   14.3807   16.3404    5.3917 H   0  0  0  0  0  0  0  0  0  0  0  0
   14.9804   14.6727    5.6985 H   0  0  0  0  0  0  0  0  0  0  0  0
   16.5756   17.2126    5.1652 H   0  0  0  0  0  0  0  0  0  0  0  0
   16.6776   16.0519    6.5603 H   0  0  0  0  0  0  0  0  0  0  0  0
   20.5232   16.7190    2.3469 H   0  0  0  0  0  0  0  0  0  0  0  0
   18.8153   16.6128    1.8006 H   0  0  0  0  0  0  0  0  0  0  0  0
   19.6613   18.1973    1.8006 H   0  0  0  0  0  0  0  0  0  0  0  0
   22.9381   18.3692    6.0613 H   0  0  0  0  0  0  0  0  0  0  0  0
   23.8502   17.7517    4.6423 H   0  0  0  0  0  0  0  0  0  0  0  0
   23.2203   19.4339    4.6423 H   0  0  0  0  0  0  0  0  0  0  0  0
  2  1  2  0
  3  2  1  0
  4  3  2  0
  5  4  1  0
  6  5  2  0
  6  1  1  0
  7  6  1  0
  8  7  2  0
  9  8  1  0
 10  9  1  0
 11 10  1  0
 12 11  1  0
 12  7  1  0
 14 13  1  0
 14  1  1  0
 15  2  1  0
 16 15  1  0
  3 17  1  0
  4 18  1  0
  5 19  1  0
  8 20  1  0
  9 21  1  0
  9 22  1  0
 10 23  1  0
 10 24  1  0
 11 25  1  0
 11 26  1  0
 12 27  1  0
 12 28  1  0
 13 29  1  0
 13 30  1  0
 13 31  1  0
 16 32  1  0
 16 33  1  0
 16 34  1  0
M  CHG  1  10   1
M  END
$$$$
=
     RDKit          3D

 15 16  0  0  0  0  0  0  0  0999 V2000
   19.7500   16.8410    3.2340 C   0  0  0  0  0  0  0  0  0  0  0  0
   19.0220   15.5890    3.4510 C   0  0  0  0  0  0  0  0  0  0  0  0
   19.2310   14.8770    4.5720 C   0  0  0  0  0  0  0  0  0  0  0  0
   20.1380   15.3410    5.5180 N   0  0  0  0  0  0  0  0  0  0  0  0
   20.8540   16.5240    5.3510 C   0  0  0  0  0  0  0  0  0  0  0  0
   20.6340   17.2720    4.1620 C   0  0  0  0  0  0  0  0  0  0  0  0
   21.6260   16.7080    6.3980 N   0  0  0  0  0  0  0  0  0  0  0  0
   21.3970   15.6370    7.2250 N   0  0  0  0  0  0  0  0  0  0  0  0
   20.5020   14.8070    6.7050 N   0  0  0  0  0  0  0  0  0  0  0  0
   19.4870   17.5190    2.0680 N   0  0  0  0  0  0  0  0  0  0  0  0
   18.3048   15.2315    2.6974 H   0  0  0  0  0  0  0  0  0  0  0  0
   18.6887   13.9347    4.7394 H   0  0  0  0  0  0  0  0  0  0  0  0
   21.1870   18.2082    3.9958 H   0  0  0  0  0  0  0  0  0  0  0  0
   19.9723   18.4050    1.8668 H   0  0  0  0  0  0  0  0  0  0  0  0
   18.8046   17.1412    1.3953 H   0  0  0  0  0  0  0  0  0  0  0  0
  2  1  1  0
  3  2  2  0
  4  3  1  0
  5  4  1  0
  6  5  1  0
  6  1  2  0
  7  5  2  0
  8  7  1  0
  9  8  2  0
  9  4  1  0
 10  1  1  0
  2 11  1  0
  3 12  1  0
  6 13  1  0
 10 14  1  0
 10 15  1  0
M  END
$$$$
=
     RDKit          3D

 30 30  0  0  0  0  0  0  0  0999 V2000
   16.7080   15.3630    3.9830 N   0  0  1  0  0  4  0  0  0  0  0  0
   15.9560   15.7250    5.2600 C   0  0  0  0  0  0  0  0  0  0  0  0
   16.8790   16.4230    6.2630 C   0  0  0  0  0  0  0  0  0  0  0  0
   18.0230   17.1870    5.5990 C   0  0  0  0  0  0  0  0  0  0  0  0
   18.9690   16.2440    4.8270 C   0  0  2  0  0  0  0  0  0  0  0  0
   18.1800   15.0360    4.2190 C   0  0  0  0  0  0  0  0  0  0  0  0
   20.0330   15.7360    5.8320 N   0  0  0  0  0  4  0  0  0  0  0  0
   19.6730   16.9900    3.6750 C   0  0  0  0  0  0  0  0  0  0  0  0
   19.1780   18.2340    3.5610 F   0  0  0  0  0  0  0  0  0  0  0  0
   19.5140   16.3270    2.5170 F   0  0  0  0  0  0  0  0  0  0  0  0
   20.9890   17.0810    3.9540 F   0  0  0  0  0  0  0  0  0  0  0  0
   14.5880   14.0220    3.8620 C   0  0  0  0  0  0  0  0  0  0  0  0
   15.9490   14.2560    3.2340 C   0  0  0  0  0  0  0  0  0  0  0  0
   16.7347   16.1972    3.3794 H   0  0  0  0  0  0  0  0  0  0  0  0
   15.1237   16.3987    5.0083 H   0  0  0  0  0  0  0  0  0  0  0  0
   15.5782   14.7990    5.7180 H   0  0  0  0  0  0  0  0  0  0  0  0
   16.2807   17.1330    6.8529 H   0  0  0  0  0  0  0  0  0  0  0  0
   17.3302   15.6405    6.8908 H   0  0  0  0  0  0  0  0  0  0  0  0
   17.6008   17.9210    4.8968 H   0  0  0  0  0  0  0  0  0  0  0  0
   18.6054   17.6849    6.3882 H   0  0  0  0  0  0  0  0  0  0  0  0
   18.6395   14.7615    3.2580 H   0  0  0  0  0  0  0  0  0  0  0  0
   18.2282   14.2066    4.9399 H   0  0  0  0  0  0  0  0  0  0  0  0
   19.7003   15.8948    6.7938 H   0  0  0  0  0  0  0  0  0  0  0  0
   20.1907   14.7288    5.6852 H   0  0  0  0  0  0  0  0  0  0  0  0
   20.9154   16.2466    5.6852 H   0  0  0  0  0  0  0  0  0  0  0  0
   14.6822   14.0382    4.9578 H   0  0  0  0  0  0  0  0  0  0  0  0
   13.8953   14.8142    3.5418 H   0  0  0  0  0  0  0  0  0  0  0  0
   14.1997   13.0439    3.5418 H   0  0  0  0  0  0  0  0  0  0  0  0
   16.5323   13.3244    3.2781 H   0  0  0  0  0  0  0  0  0  0  0  0
   15.8080   14.5680    2.1886 H   0  0  0  0  0  0  0  0  0  0  0  0
  2  1  1  0
  3  2  1  0
  4  3  1  0
  5  4  1  0
  6  5  1  0
  6  1  1  0
  7  5  1  0
  5  8  1  6
  9  8  1  0
 10  8  1  0
 11  8  1  0
 13 12  1  0
 13  1  1  0
  1 14  1  6
  2 15  1  0
  2 16  1  0
  3 17  1  0
  3 18  1  0
  4 19  1  0
  4 20  1  0
  6 21  1  0
  6 22  1  0
  7 23  1  0
  7 24  1  0
  7 25  1  0
 12 26  1  0
 12 27  1  0
 12 28  1  0
 13 29  1  0
 13 30  1  0
M  CHG  2   1   1   7   1
M  END
$$$$
=
     RDKit          3D

 38 40  0  0  0  0  0  0  0  0999 V2000
   20.6470   15.2430    4.7230 F   0  0  0  0  0  0  0  0  0  0  0  0
   20.9220   16.4210    5.3360 C   0  0  1  0  0  0  0  0  0  0  0  0
   22.3790   16.7820    5.0610 C   0  0  0  0  0  0  0  0  0  0  0  0
   22.6580   18.2750    5.1000 C   0  0  0  0  0  0  0  0  0  0  0  0
   21.6710   18.9540    5.9840 N   0  0  0  0  0  4  0  0  0  0  0  0
   20.2210   18.7950    5.6330 C   0  0  0  0  0  0  0  0  0  0  0  0
   19.9200   17.4860    4.8720 C   0  0  1  0  0  0  0  0  0  0  0  0
   19.9030   17.6700    3.3390 C   0  0  0  0  0  0  0  0  0  0  0  0
   19.0570   16.5200    2.8050 C   0  0  0  0  0  0  0  0  0  0  0  0
   18.0100   16.3410    3.8620 N   0  0  2  0  0  4  0  0  0  0  0  0
   18.4720   17.0220    5.1320 C   0  0  0  0  0  0  0  0  0  0  0  0
   17.5460   14.9040    4.0310 C   0  0  0  0  0  0  0  0  0  0  0  0
   16.0660   14.8110    4.0990 C   0  0  0  0  0  0  0  0  0  0  0  0
   15.0780   15.6580    4.5530 C   0  0  0  0  0  0  0  0  0  0  0  0
   13.8520   14.9780    4.3580 C   0  0  0  0  0  0  0  0  0  0  0  0
   14.1660   13.7620    3.7990 C   0  0  0  0  0  0  0  0  0  0  0  0
   15.5110   13.6520    3.6280 O   0  0  0  0  0  0  0  0  0  0  0  0
   20.8066   16.3485    6.4275 H   0  0  0  0  0  0  0  0  0  0  0  0
   23.0070   16.2918    5.8195 H   0  0  0  0  0  0  0  0  0  0  0  0
   22.6071   16.4397    4.0408 H   0  0  0  0  0  0  0  0  0  0  0  0
   23.6729   18.4460    5.4882 H   0  0  0  0  0  0  0  0  0  0  0  0
   22.5739   18.6850    4.0827 H   0  0  0  0  0  0  0  0  0  0  0  0
   21.8023   18.5859    6.9370 H   0  0  0  0  0  0  0  0  0  0  0  0
   21.8636   19.9602    5.8773 H   0  0  0  0  0  0  0  0  0  0  0  0
   19.6333   18.8020    6.5628 H   0  0  0  0  0  0  0  0  0  0  0  0
   19.9520   19.6291    4.9682 H   0  0  0  0  0  0  0  0  0  0  0  0
   19.4514   18.6368    3.0720 H   0  0  0  0  0  0  0  0  0  0  0  0
   20.9176   17.6644    2.9141 H   0  0  0  0  0  0  0  0  0  0  0  0
   18.6007   16.7822    1.8391 H   0  0  0  0  0  0  0  0  0  0  0  0
   19.6411   15.6066    2.6193 H   0  0  0  0  0  0  0  0  0  0  0  0
   17.1435   16.8076    3.5581 H   0  0  0  0  0  0  0  0  0  0  0  0
   17.8295   17.8863    5.3562 H   0  0  0  0  0  0  0  0  0  0  0  0
   18.4192   16.3400    5.9935 H   0  0  0  0  0  0  0  0  0  0  0  0
   17.9018   14.3112    3.1754 H   0  0  0  0  0  0  0  0  0  0  0  0
   17.9583   14.5186    4.9752 H   0  0  0  0  0  0  0  0  0  0  0  0
   15.2149   16.6619    4.9813 H   0  0  0  0  0  0  0  0  0  0  0  0
   12.8464   15.3493    4.6050 H   0  0  0  0  0  0  0  0  0  0  0  0
   13.4333   12.9875    3.5283 H   0  0  0  0  0  0  0  0  0  0  0  0
  2  1  1  0
  3  2  1  0
  4  3  1  0
  5  4  1  0
  6  5  1  0
  7  2  1  0
  7  6  1  1
  8  7  1  0
  9  8  1  0
 10  9  1  0
 11 10  1  0
 11  7  1  0
 12 10  1  0
 13 12  1  0
 14 13  2  0
 15 14  1  0
 16 15  2  0
 17 16  1  0
 17 13  1  0
  2 18  1  1
  3 19  1  0
  3 20  1  0
  4 21  1  0
  4 22  1  0
  5 23  1  0
  5 24  1  0
  6 25  1  0
  6 26  1  0
  8 27  1  0
  8 28  1  0
  9 29  1  0
  9 30  1  0
 10 31  1  6
 11 32  1  0
 11 33  1  0
 12 34  1  0
 12 35  1  0
 14 36  1  0
 15 37  1  0
 16 38  1  0
M  CHG  2   5   1  10   1
M  END
$$$$
=
     RDKit          3D

 26 28  0  0  0  0  0  0  0  0999 V2000
   14.9760   13.3840    3.2600 C   0  0  0  0  0  0  0  0  0  0  0  0
   14.1900   14.1510    4.1470 C   0  0  0  0  0  0  0  0  0  0  0  0
   14.7300   15.2220    4.8720 C   0  0  0  0  0  0  0  0  0  0  0  0
   16.0780   15.4900    4.7280 C   0  0  0  0  0  0  0  0  0  0  0  0
   16.8600   14.6980    3.8910 C   0  0  0  0  0  0  0  0  0  0  0  0
   16.3470   13.6350    3.1700 C   0  0  0  0  0  0  0  0  0  0  0  0
   18.2420   15.1870    3.9510 C   0  0  0  0  0  0  0  0  0  0  0  0
   19.1570   14.6910    3.3220 O   0  0  0  0  0  0  0  0  0  0  0  0
   18.2440   16.2710    4.8280 N   0  0  0  0  0  0  0  0  0  0  0  0
   16.9210   16.5360    5.3700 C   0  0  0  0  0  0  0  0  0  0  0  0
   14.4290   12.2490    2.6490 N   0  0  0  0  0  0  0  0  0  0  0  0
   19.3620   17.0780    5.2100 C   0  0  0  0  0  0  0  0  0  0  0  0
   19.2440   18.5550    5.4670 C   0  0  0  0  0  0  0  0  0  0  0  0
   20.0070   18.0590    4.2720 C   0  0  0  0  0  0  0  0  0  0  0  0
   13.1260   13.9016    4.2724 H   0  0  0  0  0  0  0  0  0  0  0  0
   14.0994   15.8313    5.5361 H   0  0  0  0  0  0  0  0  0  0  0  0
   16.9986   13.0067    2.5450 H   0  0  0  0  0  0  0  0  0  0  0  0
   16.5765   17.5441    5.0959 H   0  0  0  0  0  0  0  0  0  0  0  0
   16.8891   16.5029    6.4690 H   0  0  0  0  0  0  0  0  0  0  0  0
   14.9998   11.6872    2.0013 H   0  0  0  0  0  0  0  0  0  0  0  0
   13.4558   11.9759    2.8472 H   0  0  0  0  0  0  0  0  0  0  0  0
   19.7102   16.2122    5.7923 H   0  0  0  0  0  0  0  0  0  0  0  0
   18.2771   19.0615    5.3308 H   0  0  0  0  0  0  0  0  0  0  0  0
   19.4716   19.2176    6.3150 H   0  0  0  0  0  0  0  0  0  0  0  0
   21.1026   18.1520    4.2418 H   0  0  0  0  0  0  0  0  0  0  0  0
   19.9612   18.2442    3.1887 H   0  0  0  0  0  0  0  0  0  0  0  0
  2  1  2  0
  3  2  1  0
  4  3  2  0
  5  4  1  0
  6  1  1  0
  6  5  2  0
  7  5  1  0
  8  7  2  0
  9  7  1  0
 10  4  1  0
 10  9  1  0
 11  1  1  0
 12  9  1  0
 13 12  1  0
 14 12  1  0
 14 13  1  0
  2 15  1  0
  3 16  1  0
  6 17  1  0
 10 18  1  0
 10 19  1  0
 11 20  1  0
 11 21  1  0
 12 22  1  0
 13 23  1  0
 13 24  1  0
 14 25  1  0
 14 26  1  0
M  END
$$$$
=
     RDKit          3D

 23 24  0  0  0  0  0  0  0  0999 V2000
   13.7780   13.3750    3.3240 C   0  0  0  0  0  0  0  0  0  0  0  0
   14.8640   12.6780    2.7930 C   0  0  0  0  0  0  0  0  0  0  0  0
   16.1710   13.1140    3.0480 C   0  0  0  0  0  0  0  0  0  0  0  0
   16.4220   14.2890    3.7770 C   0  0  0  0  0  0  0  0  0  0  0  0
   15.3200   14.9820    4.3190 C   0  0  0  0  0  0  0  0  0  0  0  0
   14.0110   14.5170    4.1000 C   0  0  0  0  0  0  0  0  0  0  0  0
   15.5720   16.1400    5.0660 C   0  0  0  0  0  0  0  0  0  0  0  0
   16.8780   16.5770    5.2480 C   0  0  0  0  0  0  0  0  0  0  0  0
   17.8940   15.8390    4.6700 C   0  0  0  0  0  0  0  0  0  0  0  0
   17.6930   14.7180    3.9450 N   0  0  0  0  0  0  0  0  0  0  0  0
   12.1460   11.7270    2.5390 N   0  0  0  0  0  0  0  0  0  0  0  0
   12.3680   12.9460    3.1150 C   0  0  0  0  0  0  0  0  0  0  0  0
   11.4290   13.6710    3.4170 O   0  0  0  0  0  0  0  0  0  0  0  0
   17.2480   12.4330    2.4010 N   0  0  0  0  0  0  0  0  0  0  0  0
   14.6938   11.7851    2.1734 H   0  0  0  0  0  0  0  0  0  0  0  0
   13.1609   15.0563    4.5432 H   0  0  0  0  0  0  0  0  0  0  0  0
   14.7365   16.7027    5.5080 H   0  0  0  0  0  0  0  0  0  0  0  0
   17.0969   17.4820    5.8337 H   0  0  0  0  0  0  0  0  0  0  0  0
   18.9285   16.1860    4.8092 H   0  0  0  0  0  0  0  0  0  0  0  0
   11.1822   11.4002    2.3803 H   0  0  0  0  0  0  0  0  0  0  0  0
   12.9425   11.1349    2.2635 H   0  0  0  0  0  0  0  0  0  0  0  0
   18.2199   12.7302    2.5684 H   0  0  0  0  0  0  0  0  0  0  0  0
   17.0524   11.6449    1.7673 H   0  0  0  0  0  0  0  0  0  0  0  0
  2  1  2  0
  3  2  1  0
  4  3  2  0
  5  4  1  0
  6  5  2  0
  6  1  1  0
  7  5  1  0
  8  7  2  0
  9  8  1  0
 10  9  2  0
 10  4  1  0
 12 11  1  0
 12  1  1  0
 13 12  2  0
 14  3  1  0
  2 15  1  0
  6 16  1  0
  7 17  1  0
  8 18  1  0
  9 19  1  0
 11 20  1  0
 11 21  1  0
 14 22  1  0
 14 23  1  0
M  END
$$$$
=
     RDKit          3D

 33 34  0  0  0  0  0  0  0  0999 V2000
   18.8470   16.1970    4.6340 N   0  0  0  0  0  0  0  0  0  0  0  0
   19.8240   15.4040    4.0830 C   0  0  0  0  0  0  0  0  0  0  0  0
   19.3230   14.2800    3.6210 N   0  0  0  0  0  0  0  0  0  0  0  0
   17.9760   14.4290    3.7370 C   0  0  0  0  0  0  0  0  0  0  0  0
   17.6520   15.5910    4.3710 C   0  0  0  0  0  0  0  0  0  0  0  0
   16.3090   15.9610    4.6600 C   0  0  0  0  0  0  0  0  0  0  0  0
   16.0480   16.9220    5.3750 O   0  0  0  0  0  0  0  0  0  0  0  0
   15.3700   15.0840    4.1190 N   0  0  0  0  0  0  0  0  0  0  0  0
   13.9650   15.3870    4.3200 C   0  0  0  0  0  0  0  0  0  0  0  0
   15.6670   13.8450    3.5110 C   0  0  0  0  0  0  0  0  0  0  0  0
   14.7690   13.0650    3.1870 O   0  0  0  0  0  0  0  0  0  0  0  0
   17.0170   13.5380    3.3220 N   0  0  0  0  0  0  0  0  0  0  0  0
   17.4010   12.3040    2.6570 C   0  0  0  0  0  0  0  0  0  0  0  0
   19.0890   17.4330    5.3410 C   0  0  0  0  0  0  0  0  0  0  0  0
   20.1940   18.3450    4.7840 C   0  0  0  0  0  0  0  0  0  0  0  0
   21.5250   18.4370    5.5240 C   0  0  0  0  0  0  0  0  0  0  0  0
   22.5660   19.1380    4.7380 N   0  0  0  0  0  4  0  0  0  0  0  0
   20.8890   15.6749    4.0346 H   0  0  0  0  0  0  0  0  0  0  0  0
   13.7504   15.4333    5.3979 H   0  0  0  0  0  0  0  0  0  0  0  0
   13.7292   16.3567    3.8572 H   0  0  0  0  0  0  0  0  0  0  0  0
   13.3505   14.6007    3.8572 H   0  0  0  0  0  0  0  0  0  0  0  0
   17.6389   11.5396    3.4114 H   0  0  0  0  0  0  0  0  0  0  0  0
   16.5698   11.9524    2.0281 H   0  0  0  0  0  0  0  0  0  0  0  0
   18.2850   12.4861    2.0281 H   0  0  0  0  0  0  0  0  0  0  0  0
   18.1507   18.0072    5.3383 H   0  0  0  0  0  0  0  0  0  0  0  0
   19.4411   17.1301    6.3381 H   0  0  0  0  0  0  0  0  0  0  0  0
   20.4161   17.9955    3.7649 H   0  0  0  0  0  0  0  0  0  0  0  0
   19.7714   19.3562    4.8780 H   0  0  0  0  0  0  0  0  0  0  0  0
   21.3675   18.9828    6.4660 H   0  0  0  0  0  0  0  0  0  0  0  0
   21.8779   17.4108    5.7040 H   0  0  0  0  0  0  0  0  0  0  0  0
   23.2349   19.5884    5.3788 H   0  0  0  0  0  0  0  0  0  0  0  0
   23.0633   18.4590    4.1443 H   0  0  0  0  0  0  0  0  0  0  0  0
   22.1238   19.8542    4.1443 H   0  0  0  0  0  0  0  0  0  0  0  0
  2  1  1  0
  3  2  2  0
  4  3  1  0
  5  4  2  0
  5  1  1  0
  6  5  1  0
  7  6  2  0
  8  6  1  0
  9  8  1  0
 10  8  1  0
 11 10  2  0
 12 10  1  0
 12  4  1  0
 13 12  1  0
 14  1  1  0
 15 14  1  0
 16 15  1  0
 17 16  1  0
  2 18  1  0
  9 19  1  0
  9 20  1  0
  9 21  1  0
 13 22  1  0
 13 23  1  0
 13 24  1  0
 14 25  1  0
 14 26  1  0
 15 27  1  0
 15 28  1  0
 16 29  1  0
 16 30  1  0
 17 31  1  0
 17 32  1  0
 17 33  1  0
M  CHG  1  17   1
M  END
$$$$
=
     RDKit          3D

 32 33  0  0  0  0  0  0  0  0999 V2000
   15.5130   13.8210    3.4760 C   0  0  0  0  0  0  0  0  0  0  0  0
   15.9750   12.5510    3.1860 C   0  0  0  0  0  0  0  0  0  0  0  0
   17.3550   12.3720    3.0840 C   0  0  0  0  0  0  0  0  0  0  0  0
   18.2200   13.4500    3.2990 C   0  0  0  0  0  0  0  0  0  0  0  0
   17.6650   14.6920    3.5430 C   0  0  0  0  0  0  0  0  0  0  0  0
   16.3370   14.8880    3.5860 N   0  0  0  0  0  0  0  0  0  0  0  0
   18.3830   15.8580    3.9350 N   0  0  0  0  0  0  0  0  0  0  0  0
   19.8110   15.9710    3.5850 C   0  0  0  0  0  0  0  0  0  0  0  0
   20.2010   17.4510    3.5010 C   0  0  0  0  0  0  0  0  0  0  0  0
   19.3840   18.3870    4.3990 C   0  0  0  0  0  0  0  0  0  0  0  0
   19.0460   17.7650    5.7420 C   0  0  0  0  0  0  0  0  0  0  0  0
   18.0190   16.3080    5.5470 S   0  0  0  0  0  6  0  0  0  0  0  0
   16.6150   16.6900    5.6170 O   0  0  0  0  0  0  0  0  0  0  0  0
   18.5280   15.2690    6.4170 O   0  0  0  0  0  0  0  0  0  0  0  0
   14.0870   14.1590    3.8050 C   0  0  0  0  0  0  0  0  0  0  0  0
   14.0330   15.5630    4.3210 N   0  0  0  0  0  4  0  0  0  0  0  0
   15.2795   11.7113    3.0408 H   0  0  0  0  0  0  0  0  0  0  0  0
   17.7633   11.3816    2.8341 H   0  0  0  0  0  0  0  0  0  0  0  0
   19.3112   13.3131    3.2746 H   0  0  0  0  0  0  0  0  0  0  0  0
   20.4180   15.4751    4.3568 H   0  0  0  0  0  0  0  0  0  0  0  0
   19.9893   15.4891    2.6124 H   0  0  0  0  0  0  0  0  0  0  0  0
   21.2595   17.5419    3.7863 H   0  0  0  0  0  0  0  0  0  0  0  0
   19.9999   17.7642    2.4659 H   0  0  0  0  0  0  0  0  0  0  0  0
   19.9658   19.3042    4.5727 H   0  0  0  0  0  0  0  0  0  0  0  0
   18.4357   18.5977    3.8829 H   0  0  0  0  0  0  0  0  0  0  0  0
   19.9793   17.4799    6.2496 H   0  0  0  0  0  0  0  0  0  0  0  0
   18.4892   18.5045    6.3362 H   0  0  0  0  0  0  0  0  0  0  0  0
   13.4680   14.0734    2.8997 H   0  0  0  0  0  0  0  0  0  0  0  0
   13.7037   13.4647    4.5673 H   0  0  0  0  0  0  0  0  0  0  0  0
   14.0335   15.5505    5.3509 H   0  0  0  0  0  0  0  0  0  0  0  0
   14.8545   16.0846    3.9836 H   0  0  0  0  0  0  0  0  0  0  0  0
   13.1738   16.0200    3.9836 H   0  0  0  0  0  0  0  0  0  0  0  0
  2  1  2  0
  3  2  1  0
  4  3  2  0
  5  4  1  0
  6  1  1  0
  6  5  2  0
  7  5  1  0
  8  7  1  0
  9  8  1  0
 10  9  1  0
 11 10  1  0
 12  7  1  0
 12 11  1  0
 13 12  2  0
 14 12  2  0
 15  1  1  0
 16 15  1  0
  2 17  1  0
  3 18  1  0
  4 19  1  0
  8 20  1  0
  8 21  1  0
  9 22  1  0
  9 23  1  0
 10 24  1  0
 10 25  1  0
 11 26  1  0
 11 27  1  0
 15 28  1  0
 15 29  1  0
 16 30  1  0
 16 31  1  0
 16 32  1  0
M  CHG  1  16   1
M  END
$$$$
=
     RDKit          3D

 25 26  0  0  0  0  0  0  0  0999 V2000
   19.2690   14.9780    3.5120 N   0  0  0  0  0  0  0  0  0  0  0  0
   16.4510   12.6540    3.0660 C   0  0  0  0  0  0  0  0  0  0  0  0
   15.7990   13.9970    2.9920 N   0  0  0  0  0  4  0  0  0  0  0  0
   16.7840   15.0050    3.5190 C   0  0  0  0  0  0  0  0  0  0  0  0
   18.0670   14.2150    3.8550 C   0  0  1  0  0  0  0  0  0  0  0  0
   17.9240   12.9700    2.9780 C   0  0  0  0  0  0  0  0  0  0  0  0
   20.0660   15.3530    4.6190 C   0  0  0  0  0  0  0  0  0  0  0  0
   19.8660   14.6930    5.8170 C   0  0  0  0  0  0  0  0  0  0  0  0
   20.6470   15.0880    6.8780 C   0  0  0  0  0  0  0  0  0  0  0  0
   21.5660   16.0620    6.7910 N   0  0  0  0  0  0  0  0  0  0  0  0
   21.6780   16.6450    5.5940 C   0  0  0  0  0  0  0  0  0  0  0  0
   20.9660   16.3400    4.4940 N   0  0  0  0  0  0  0  0  0  0  0  0
   19.5146   15.2222    2.5420 H   0  0  0  0  0  0  0  0  0  0  0  0
   16.2127   12.1534    4.0161 H   0  0  0  0  0  0  0  0  0  0  0  0
   16.1123   11.9699    2.2739 H   0  0  0  0  0  0  0  0  0  0  0  0
   15.5577   14.2179    2.0153 H   0  0  0  0  0  0  0  0  0  0  0  0
   14.9317   14.0113    3.5474 H   0  0  0  0  0  0  0  0  0  0  0  0
   16.9946   15.7682    2.7554 H   0  0  0  0  0  0  0  0  0  0  0  0
   16.3903   15.5270    4.4036 H   0  0  0  0  0  0  0  0  0  0  0  0
   18.1754   13.9865    4.9255 H   0  0  0  0  0  0  0  0  0  0  0  0
   18.2206   13.1823    1.9402 H   0  0  0  0  0  0  0  0  0  0  0  0
   18.5643   12.1369    3.3036 H   0  0  0  0  0  0  0  0  0  0  0  0
   19.1192   13.8916    5.9168 H   0  0  0  0  0  0  0  0  0  0  0  0
   20.5118   14.5809    7.8447 H   0  0  0  0  0  0  0  0  0  0  0  0
   22.4220   17.4497    5.4990 H   0  0  0  0  0  0  0  0  0  0  0  0
  3  2  1  0
  4  3  1  0
  5  4  1  0
  5  1  1  0
  6  5  1  0
  6  2  1  0
  7  1  1  0
  8  7  2  0
  9  8  1  0
 10  9  2  0
 11 10  1  0
 12  7  1  0
 12 11  2  0
  1 13  1  0
  2 14  1  0
  2 15  1  0
  3 16  1  0
  3 17  1  0
  4 18  1  0
  4 19  1  0
  5 20  1  1
  6 21  1  0
  6 22  1  0
  8 23  1  0
  9 24  1  0
 11 25  1  0
M  CHG  1   3   1
M  END
$$$$
=
     RDKit          3D

 32 33  0  0  0  0  0  0  0  0999 V2000
   21.8270   15.8820    6.1770 N   0  0  0  0  0  4  0  0  0  0  0  0
   21.4350   16.8630    5.1180 C   0  0  0  0  0  0  0  0  0  0  0  0
   20.0430   17.4000    5.4020 C   0  0  0  0  0  0  0  0  0  0  0  0
   18.9720   16.2840    5.4170 C   0  0  0  0  0  0  0  0  0  0  0  0
   19.5920   14.9150    5.7690 C   0  0  0  0  0  0  0  0  0  0  0  0
   20.7260   15.0570    6.7690 C   0  0  0  0  0  0  0  0  0  0  0  0
   18.1870   16.1640    4.0950 C   0  0  0  0  0  0  0  0  0  0  0  0
   18.0230   14.4260    3.5710 S   0  0  0  0  0  0  0  0  0  0  0  0
   16.2550   14.2340    3.6980 C   0  0  0  0  0  0  0  0  0  0  0  0
   15.5970   13.1270    3.1510 C   0  0  0  0  0  0  0  0  0  0  0  0
   14.2110   13.0020    3.2690 C   0  0  0  0  0  0  0  0  0  0  0  0
   13.4770   13.9780    3.9410 C   0  0  0  0  0  0  0  0  0  0  0  0
   14.1270   15.0750    4.5030 C   0  0  0  0  0  0  0  0  0  0  0  0
   15.5130   15.2000    4.3850 C   0  0  0  0  0  0  0  0  0  0  0  0
   22.5146   15.2354    5.7646 H   0  0  0  0  0  0  0  0  0  0  0  0
   22.1868   16.4526    6.9554 H   0  0  0  0  0  0  0  0  0  0  0  0
   22.1528   17.6965    5.1089 H   0  0  0  0  0  0  0  0  0  0  0  0
   21.4371   16.3604    4.1395 H   0  0  0  0  0  0  0  0  0  0  0  0
   20.0494   17.8966    6.3835 H   0  0  0  0  0  0  0  0  0  0  0  0
   19.7838   18.1027    4.5963 H   0  0  0  0  0  0  0  0  0  0  0  0
   18.2568   16.5814    6.1980 H   0  0  0  0  0  0  0  0  0  0  0  0
   18.8127   14.2705    6.2018 H   0  0  0  0  0  0  0  0  0  0  0  0
   19.9986   14.4735    4.8472 H   0  0  0  0  0  0  0  0  0  0  0  0
   20.3507   15.5484    7.6788 H   0  0  0  0  0  0  0  0  0  0  0  0
   21.1154   14.0591    7.0192 H   0  0  0  0  0  0  0  0  0  0  0  0
   17.1831   16.5913    4.2353 H   0  0  0  0  0  0  0  0  0  0  0  0
   18.7390   16.7090    3.3151 H   0  0  0  0  0  0  0  0  0  0  0  0
   16.1739   12.3516    2.6256 H   0  0  0  0  0  0  0  0  0  0  0  0
   13.6983   12.1328    2.8313 H   0  0  0  0  0  0  0  0  0  0  0  0
   12.3846   13.8822    4.0277 H   0  0  0  0  0  0  0  0  0  0  0  0
   13.5489   15.8420    5.0392 H   0  0  0  0  0  0  0  0  0  0  0  0
   16.0242   16.0637    4.8353 H   0  0  0  0  0  0  0  0  0  0  0  0
  2  1  1  0
  3  2  1  0
  4  3  1  0
  5  4  1  0
  6  5  1  0
  6  1  1  0
  7  4  1  0
  8  7  1  0
  9  8  1  0
 10  9  2  0
 11 10  1  0
 12 11  2  0
 13 12  1  0
 14 13  2  0
 14  9  1  0
  1 15  1  0
  1 16  1  0
  2 17  1  0
  2 18  1  0
  3 19  1  0
  3 20  1  0
  4 21  1  0
  5 22  1  0
  5 23  1  0
  6 24  1  0
  6 25  1  0
  7 26  1  0
  7 27  1  0
 10 28  1  0
 11 29  1  0
 12 30  1  0
 13 31  1  0
 14 32  1  0
M  CHG  1   1   1
M  END
$$$$
=
     RDKit          3D

 39 41  0  0  0  0  0  0  0  0999 V2000
   18.6330   15.9440    5.2190 C   0  0  2  0  0  0  0  0  0  0  0  0
   18.8780   15.2510    6.5400 N   0  0  0  0  0  4  0  0  0  0  0  0
   20.1990   14.5770    6.6060 C   0  0  0  0  0  0  0  0  0  0  0  0
   21.2860   15.6420    6.5680 C   0  0  0  0  0  0  0  0  0  0  0  0
   21.0780   16.6430    5.4550 C   0  0  0  0  0  0  0  0  0  0  0  0
   19.8230   16.8100    4.8250 C   0  0  0  0  0  0  0  0  0  0  0  0
   19.7220   17.7380    3.7730 C   0  0  0  0  0  0  0  0  0  0  0  0
   20.8150   18.5210    3.3970 C   0  0  0  0  0  0  0  0  0  0  0  0
   22.0320   18.3810    4.0530 C   0  0  0  0  0  0  0  0  0  0  0  0
   22.1660   17.4470    5.0760 C   0  0  0  0  0  0  0  0  0  0  0  0
   17.2920   16.7040    5.2940 C   0  0  0  0  0  0  0  0  0  0  0  0
   15.7350   15.3870    6.5090 O   0  0  0  0  0  0  0  0  0  0  0  0
   16.1270   15.7390    5.3970 C   0  0  0  0  0  0  0  0  0  0  0  0
   15.5890   15.4080    4.1740 N   0  0  0  0  0  0  0  0  0  0  0  0
   14.4960   14.5470    3.9240 C   0  0  0  0  0  0  0  0  0  0  0  0
   13.1820   14.8140    4.3120 C   0  0  0  0  0  0  0  0  0  0  0  0
   12.1600   13.9040    4.0240 C   0  0  0  0  0  0  0  0  0  0  0  0
   12.4420   12.7200    3.3460 C   0  0  0  0  0  0  0  0  0  0  0  0
   13.7480   12.4440    2.9570 C   0  0  0  0  0  0  0  0  0  0  0  0
   14.7710   13.3520    3.2450 C   0  0  0  0  0  0  0  0  0  0  0  0
   18.5423   15.2073    4.4072 H   0  0  0  0  0  0  0  0  0  0  0  0
   18.8297   15.9526    7.2925 H   0  0  0  0  0  0  0  0  0  0  0  0
   18.1559   14.5240    6.6448 H   0  0  0  0  0  0  0  0  0  0  0  0
   20.2758   14.0014    7.5402 H   0  0  0  0  0  0  0  0  0  0  0  0
   20.3146   13.8894    5.7553 H   0  0  0  0  0  0  0  0  0  0  0  0
   21.2881   16.1781    7.5285 H   0  0  0  0  0  0  0  0  0  0  0  0
   22.2446   15.1343    6.3856 H   0  0  0  0  0  0  0  0  0  0  0  0
   18.7671   17.8486    3.2382 H   0  0  0  0  0  0  0  0  0  0  0  0
   20.7126   19.2502    2.5798 H   0  0  0  0  0  0  0  0  0  0  0  0
   22.8885   19.0077    3.7640 H   0  0  0  0  0  0  0  0  0  0  0  0
   23.1313   17.3374    5.5919 H   0  0  0  0  0  0  0  0  0  0  0  0
   17.2975   17.3573    6.1789 H   0  0  0  0  0  0  0  0  0  0  0  0
   17.1743   17.2996    4.3767 H   0  0  0  0  0  0  0  0  0  0  0  0
   16.0325   15.8355    3.3485 H   0  0  0  0  0  0  0  0  0  0  0  0
   12.9490   15.7461    4.8477 H   0  0  0  0  0  0  0  0  0  0  0  0
   11.1279   14.1242    4.3344 H   0  0  0  0  0  0  0  0  0  0  0  0
   11.6354   12.0071    3.1196 H   0  0  0  0  0  0  0  0  0  0  0  0
   13.9764   11.5103    2.4222 H   0  0  0  0  0  0  0  0  0  0  0  0
   15.8022   13.1265    2.9357 H   0  0  0  0  0  0  0  0  0  0  0  0
  2  1  1  0
  3  2  1  0
  4  3  1  0
  5  4  1  0
  6  1  1  0
  6  5  2  0
  7  6  1  0
  8  7  2  0
  9  8  1  0
 10  5  1  0
 10  9  2  0
 11  1  1  0
 13 12  2  0
 13 11  1  0
 14 13  1  0
 15 14  1  0
 16 15  2  0
 17 16  1  0
 18 17  2  0
 19 18  1  0
 20 19  2  0
 20 15  1  0
  1 21  1  6
  2 22  1  0
  2 23  1  0
  3 24  1  0
  3 25  1  0
  4 26  1  0
  4 27  1  0
  7 28  1  0
  8 29  1  0
  9 30  1  0
 10 31  1  0
 11 32  1  0
 11 33  1  0
 14 34  1  0
 16 35  1  0
 17 36  1  0
 18 37  1  0
 19 38  1  0
 20 39  1  0
M  CHG  1   2   1
M  END
$$$$
=
     RDKit          3D

 38 39  0  0  0  0  0  0  0  0999 V2000
   19.1320   15.8710    4.0350 N   0  0  2  0  0  4  0  0  0  0  0  0
   19.2450   16.7870    2.8290 C   0  0  0  0  0  0  0  0  0  0  0  0
   20.3750   17.8000    3.0140 C   0  0  0  0  0  0  0  0  0  0  0  0
   20.5390   18.2520    4.4610 C   0  0  0  0  0  0  0  0  0  0  0  0
   20.8090   17.0720    5.4140 C   0  0  1  0  0  0  0  0  0  0  0  0
   20.4210   15.7140    4.8000 C   0  0  0  0  0  0  0  0  0  0  0  0
   18.4940   14.5290    3.6790 C   0  0  0  0  0  0  0  0  0  0  0  0
   14.2000   14.5030    4.1820 C   0  0  0  0  0  0  0  0  0  0  0  0
   14.8140   13.5800    3.3330 C   0  0  0  0  0  0  0  0  0  0  0  0
   16.2030   13.5930    3.1610 C   0  0  0  0  0  0  0  0  0  0  0  0
   16.9960   14.5320    3.8420 C   0  0  0  0  0  0  0  0  0  0  0  0
   16.3700   15.4600    4.6890 C   0  0  0  0  0  0  0  0  0  0  0  0
   14.9820   15.4440    4.8570 C   0  0  0  0  0  0  0  0  0  0  0  0
   11.6270   14.4830    4.5040 N   0  0  0  0  0  0  0  0  0  0  0  0
   12.7770   14.4830    4.3620 C   0  0  0  0  0  0  0  0  0  0  0  0
   22.2170   17.0740    6.0490 C   0  0  0  0  0  0  0  0  0  0  0  0
   22.9670   18.3440    5.8940 N   0  0  0  0  0  4  0  0  0  0  0  0
   18.4904   16.3461    4.6858 H   0  0  0  0  0  0  0  0  0  0  0  0
   19.4488   16.1803    1.9344 H   0  0  0  0  0  0  0  0  0  0  0  0
   18.2981   17.3352    2.7156 H   0  0  0  0  0  0  0  0  0  0  0  0
   21.3169   17.3390    2.6819 H   0  0  0  0  0  0  0  0  0  0  0  0
   20.1206   18.6891    2.4184 H   0  0  0  0  0  0  0  0  0  0  0  0
   21.3838   18.9542    4.5189 H   0  0  0  0  0  0  0  0  0  0  0  0
   19.5985   18.7292    4.7736 H   0  0  0  0  0  0  0  0  0  0  0  0
   20.1297   17.2327    6.2641 H   0  0  0  0  0  0  0  0  0  0  0  0
   20.2863   14.9722    5.6010 H   0  0  0  0  0  0  0  0  0  0  0  0
   21.2164   15.3725    4.1213 H   0  0  0  0  0  0  0  0  0  0  0  0
   18.7329   14.2934    2.6314 H   0  0  0  0  0  0  0  0  0  0  0  0
   18.9004   13.7759    4.3701 H   0  0  0  0  0  0  0  0  0  0  0  0
   14.2031   12.8390    2.7967 H   0  0  0  0  0  0  0  0  0  0  0  0
   16.6770   12.8632    2.4882 H   0  0  0  0  0  0  0  0  0  0  0  0
   16.9760   16.2055    5.2247 H   0  0  0  0  0  0  0  0  0  0  0  0
   14.5031   16.1760    5.5240 H   0  0  0  0  0  0  0  0  0  0  0  0
   22.1077   16.8701    7.1244 H   0  0  0  0  0  0  0  0  0  0  0  0
   22.7973   16.3048    5.5183 H   0  0  0  0  0  0  0  0  0  0  0  0
   23.1922   18.7254    6.8239 H   0  0  0  0  0  0  0  0  0  0  0  0
   23.8390   18.1667    5.3752 H   0  0  0  0  0  0  0  0  0  0  0  0
   22.3907   19.0220    5.3752 H   0  0  0  0  0  0  0  0  0  0  0  0
  2  1  1  0
  3  2  1  0
  4  3  1  0
  5  4  1  0
  6  1  1  0
  6  5  1  0
  7  1  1  0
  9  8  2  0
 10  9  1  0
 11 10  2  0
 11  7  1  0
 12 11  1  0
 13  8  1  0
 13 12  2  0
 15 14  3  0
 15  8  1  0
 16  5  1  0
 17 16  1  0
  1 18  1  1
  2 19  1  0
  2 20  1  0
  3 21  1  0
  3 22  1  0
  4 23  1  0
  4 24  1  0
  5 25  1  1
  6 26  1  0
  6 27  1  0
  7 28  1  0
  7 29  1  0
  9 30  1  0
 10 31  1  0
 12 32  1  0
 13 33  1  0
 16 34  1  0
 16 35  1  0
 17 36  1  0
 17 37  1  0
 17 38  1  0
M  CHG  2   1   1  17   1
M  END
$$$$
=
     RDKit          3D

 32 33  0  0  0  0  0  0  0  0999 V2000
   17.0260   15.3950    3.6500 C   0  0  1  0  0  0  0  0  0  0  0  0
   16.5640   15.9700    4.9680 C   0  0  0  0  0  0  0  0  0  0  0  0
   17.6920   16.8880    5.3390 C   0  0  0  0  0  0  0  0  0  0  0  0
   17.5410   17.8000    6.1380 O   0  0  0  0  0  0  0  0  0  0  0  0
   18.8290   16.5030    4.6540 N   0  0  0  0  0  0  0  0  0  0  0  0
   18.5290   15.5210    3.7370 C   0  0  0  0  0  0  0  0  0  0  0  0
   19.2830   14.8030    3.0810 O   0  0  0  0  0  0  0  0  0  0  0  0
   20.1380   17.0320    4.8860 C   0  0  0  0  0  0  0  0  0  0  0  0
   20.6420   18.1060    4.1280 C   0  0  0  0  0  0  0  0  0  0  0  0
   21.9230   18.6260    4.3580 C   0  0  0  0  0  0  0  0  0  0  0  0
   22.7190   18.0770    5.3480 C   0  0  0  0  0  0  0  0  0  0  0  0
   22.2590   17.0160    6.1110 C   0  0  0  0  0  0  0  0  0  0  0  0
   20.9780   16.4980    5.8810 C   0  0  0  0  0  0  0  0  0  0  0  0
   23.9430   18.5720    5.5710 F   0  0  0  0  0  0  0  0  0  0  0  0
   16.5140   13.6520    3.4400 S   0  0  0  0  0  0  0  0  0  0  0  0
   14.7290   13.7670    3.8440 C   0  0  0  0  0  0  0  0  0  0  0  0
   13.9170   12.7200    3.0740 C   0  0  0  0  0  0  0  0  0  0  0  0
   13.7700   11.4690    3.8590 N   0  0  0  0  0  4  0  0  0  0  0  0
   16.5913   15.9147    2.7834 H   0  0  0  0  0  0  0  0  0  0  0  0
   15.6221   16.5259    4.8502 H   0  0  0  0  0  0  0  0  0  0  0  0
   16.3548   15.2044    5.7297 H   0  0  0  0  0  0  0  0  0  0  0  0
   20.0165   18.5468    3.3377 H   0  0  0  0  0  0  0  0  0  0  0  0
   22.2942   19.4671    3.7540 H   0  0  0  0  0  0  0  0  0  0  0  0
   22.8974   16.5819    6.8946 H   0  0  0  0  0  0  0  0  0  0  0  0
   20.6208   15.6555    6.4914 H   0  0  0  0  0  0  0  0  0  0  0  0
   14.5943   13.6027    4.9233 H   0  0  0  0  0  0  0  0  0  0  0  0
   14.3707   14.7662    3.5556 H   0  0  0  0  0  0  0  0  0  0  0  0
   12.9183   13.1279    2.8591 H   0  0  0  0  0  0  0  0  0  0  0  0
   14.4496   12.4843    2.1408 H   0  0  0  0  0  0  0  0  0  0  0  0
   13.7959   11.6897    4.8647 H   0  0  0  0  0  0  0  0  0  0  0  0
   12.8708   11.0227    3.6285 H   0  0  0  0  0  0  0  0  0  0  0  0
   14.5413   10.8264    3.6285 H   0  0  0  0  0  0  0  0  0  0  0  0
  2  1  1  0
  3  2  1  0
  4  3  2  0
  5  3  1  0
  6  1  1  0
  6  5  1  0
  7  6  2  0
  8  5  1  0
  9  8  2  0
 10  9  1  0
 11 10  2  0
 12 11  1  0
 13  8  1  0
 13 12  2  0
 14 11  1  0
 15  1  1  0
 16 15  1  0
 17 16  1  0
 18 17  1  0
  1 19  1  6
  2 20  1  0
  2 21  1  0
  9 22  1  0
 10 23  1  0
 12 24  1  0
 13 25  1  0
 16 26  1  0
 16 27  1  0
 17 28  1  0
 17 29  1  0
 18 30  1  0
 18 31  1  0
 18 32  1  0
M  CHG  1  18   1
M  END
$$$$
=
     RDKit          3D

 30 31  0  0  0  0  0  0  0  0999 V2000
   18.0190   12.1950    2.7550 C   0  0  0  0  0  0  0  0  0  0  0  0
   17.9940   13.5530    3.3950 C   0  0  0  0  0  0  0  0  0  0  0  0
   19.1710   14.2030    3.5260 N   0  0  0  0  0  0  0  0  0  0  0  0
   19.1420   15.4160    4.0920 C   0  0  0  0  0  0  0  0  0  0  0  0
   18.0300   16.0300    4.5480 N   0  0  0  0  0  0  0  0  0  0  0  0
   16.8520   15.3540    4.4080 C   0  0  0  0  0  0  0  0  0  0  0  0
   16.7990   14.0970    3.8240 C   0  0  0  0  0  0  0  0  0  0  0  0
   20.4460   16.1790    4.2470 C   0  0  2  0  0  0  0  0  0  0  0  0
   20.8660   16.2870    5.7190 N   0  0  0  0  0  4  0  0  0  0  0  0
   22.0400   17.1860    5.9330 C   0  0  0  0  0  0  0  0  0  0  0  0
   21.7730   18.5440    5.2820 C   0  0  0  0  0  0  0  0  0  0  0  0
   21.4820   18.3830    3.8880 O   0  0  0  0  0  0  0  0  0  0  0  0
   20.2960   17.6000    3.6750 C   0  0  0  0  0  0  0  0  0  0  0  0
   15.5550   15.9940    4.8930 C   0  0  0  0  0  0  0  0  0  0  0  0
   15.7100   17.3100    5.2010 F   0  0  0  0  0  0  0  0  0  0  0  0
   15.0630   15.3960    6.0150 F   0  0  0  0  0  0  0  0  0  0  0  0
   14.5620   15.9300    3.9640 F   0  0  0  0  0  0  0  0  0  0  0  0
   18.0332   11.4214    3.5369 H   0  0  0  0  0  0  0  0  0  0  0  0
   17.1230   12.0678    2.1296 H   0  0  0  0  0  0  0  0  0  0  0  0
   18.9190   12.1009    2.1296 H   0  0  0  0  0  0  0  0  0  0  0  0
   15.8476   13.5573    3.7077 H   0  0  0  0  0  0  0  0  0  0  0  0
   21.2191   15.6225    3.6969 H   0  0  0  0  0  0  0  0  0  0  0  0
   20.0701   16.6539    6.2602 H   0  0  0  0  0  0  0  0  0  0  0  0
   21.1429   15.3442    6.0277 H   0  0  0  0  0  0  0  0  0  0  0  0
   22.2038   17.3234    7.0120 H   0  0  0  0  0  0  0  0  0  0  0  0
   22.9338   16.7332    5.4791 H   0  0  0  0  0  0  0  0  0  0  0  0
   20.9150   19.0211    5.7783 H   0  0  0  0  0  0  0  0  0  0  0  0
   22.6696   19.1723    5.3883 H   0  0  0  0  0  0  0  0  0  0  0  0
   20.1026   17.5314    2.5943 H   0  0  0  0  0  0  0  0  0  0  0  0
   19.4601   18.0932    4.1927 H   0  0  0  0  0  0  0  0  0  0  0  0
  2  1  1  0
  3  2  2  0
  4  3  1  0
  5  4  2  0
  6  5  1  0
  7  6  2  0
  7  2  1  0
  8  4  1  0
  9  8  1  0
 10  9  1  0
 11 10  1  0
 12 11  1  0
 13  8  1  0
 13 12  1  0
 14  6  1  0
 15 14  1  0
 16 14  1  0
 17 14  1  0
  1 18  1  0
  1 19  1  0
  1 20  1  0
  7 21  1  0
  8 22  1  6
  9 23  1  0
  9 24  1  0
 10 25  1  0
 10 26  1  0
 11 27  1  0
 11 28  1  0
 13 29  1  0
 13 30  1  0
M  CHG  1   9   1
M  END
$$$$
=
     RDKit          3D

 29 30  0  0  0  0  0  0  0  0999 V2000
   18.6740   16.1160    4.2500 C   0  0  1  0  0  0  0  0  0  0  0  0
   19.8390   16.9040    4.8990 C   0  0  1  0  0  0  0  0  0  0  0  0
   20.6840   16.0920    5.8940 C   0  0  0  0  0  0  0  0  0  0  0  0
   22.1040   16.6440    6.0400 C   0  0  0  0  0  0  0  0  0  0  0  0
   22.1680   18.1110    5.6430 C   0  0  0  0  0  0  0  0  0  0  0  0
   21.6460   18.3170    4.2230 C   0  0  0  0  0  0  0  0  0  0  0  0
   20.6930   17.3210    3.8160 O   0  0  0  0  0  0  0  0  0  0  0  0
   19.2620   15.0000    3.4530 N   0  0  0  0  0  4  0  0  0  0  0  0
   17.6260   15.6460    5.2110 C   0  0  0  0  0  0  0  0  0  0  0  0
   17.0070   16.6020    6.2000 C   0  0  0  0  0  0  0  0  0  0  0  0
   16.1900   16.0840    5.0480 C   0  0  0  0  0  0  0  0  0  0  0  0
   18.1189   16.8038    3.5952 H   0  0  0  0  0  0  0  0  0  0  0  0
   19.4065   17.7325    5.4791 H   0  0  0  0  0  0  0  0  0  0  0  0
   20.1924   16.1170    6.8777 H   0  0  0  0  0  0  0  0  0  0  0  0
   20.7615   15.0648    5.5081 H   0  0  0  0  0  0  0  0  0  0  0  0
   22.4226   16.5417    7.0879 H   0  0  0  0  0  0  0  0  0  0  0  0
   22.7692   16.0740    5.3747 H   0  0  0  0  0  0  0  0  0  0  0  0
   21.5542   18.6996    6.3408 H   0  0  0  0  0  0  0  0  0  0  0  0
   23.2172   18.4390    5.6816 H   0  0  0  0  0  0  0  0  0  0  0  0
   21.1638   19.3042    4.1684 H   0  0  0  0  0  0  0  0  0  0  0  0
   22.5085   18.2380    3.5449 H   0  0  0  0  0  0  0  0  0  0  0  0
   19.6391   14.2843    4.0906 H   0  0  0  0  0  0  0  0  0  0  0  0
   18.5324   14.5806    2.8591 H   0  0  0  0  0  0  0  0  0  0  0  0
   20.0204   15.3647    2.8591 H   0  0  0  0  0  0  0  0  0  0  0  0
   18.1433   14.6780    5.2845 H   0  0  0  0  0  0  0  0  0  0  0  0
   16.7870   16.2669    7.2243 H   0  0  0  0  0  0  0  0  0  0  0  0
   17.2661   17.6006    6.5816 H   0  0  0  0  0  0  0  0  0  0  0  0
   15.9108   16.7582    4.2248 H   0  0  0  0  0  0  0  0  0  0  0  0
   15.2251   15.5649    4.9504 H   0  0  0  0  0  0  0  0  0  0  0  0
  2  1  1  0
  3  2  1  0
  4  3  1  0
  5  4  1  0
  6  5  1  0
  7  6  1  0
  7  2  1  0
  8  1  1  0
  9  1  1  0
 10  9  1  0
 11  9  1  0
 11 10  1  0
  1 12  1  6
  2 13  1  1
  3 14  1  0
  3 15  1  0
  4 16  1  0
  4 17  1  0
  5 18  1  0
  5 19  1  0
  6 20  1  0
  6 21  1  0
  8 22  1  0
  8 23  1  0
  8 24  1  0
  9 25  1  0
 10 26  1  0
 10 27  1  0
 11 28  1  0
 11 29  1  0
M  CHG  1   8   1
M  END
$$$$
=
     RDKit          3D

 35 34  0  0  0  0  0  0  0  0999 V2000
   19.1990   15.9460    5.3360 C   0  0  2  0  0  0  0  0  0  0  0  0
   19.8270   14.6740    5.5280 O   0  0  0  0  0  0  0  0  0  0  0  0
   18.5340   15.9180    3.9430 C   0  0  1  0  0  0  0  0  0  0  0  0
   19.4970   15.7690    2.8900 O   0  0  0  0  0  0  0  0  0  0  0  0
   17.4760   14.8150    3.7770 C   0  0  0  0  0  0  0  0  0  0  0  0
   18.1860   13.5530    3.3740 N   0  0  0  0  0  4  0  0  0  0  0  0
   17.3040   12.4210    2.9580 C   0  0  0  0  0  0  0  0  0  0  0  0
   15.8680   12.9430    2.8980 C   0  0  0  0  0  0  0  0  0  0  0  0
   15.0360   11.8950    2.3970 O   0  0  0  0  0  0  0  0  0  0  0  0
   20.2160   17.0950    5.5410 C   0  0  2  0  0  0  0  0  0  0  0  0
   19.9420   18.1090    4.5550 O   0  0  0  0  0  0  0  0  0  0  0  0
   21.6860   16.6660    5.3550 C   0  0  2  0  0  0  0  0  0  0  0  0
   22.2060   16.2510    6.6350 O   0  0  0  0  0  0  0  0  0  0  0  0
   22.5910   17.7570    4.7840 C   0  0  0  0  0  0  0  0  0  0  0  0
   22.6670   18.8170    5.7370 O   0  0  0  0  0  0  0  0  0  0  0  0
   18.4164   16.1396    6.0843 H   0  0  0  0  0  0  0  0  0  0  0  0
   19.9163   14.4930    6.4972 H   0  0  0  0  0  0  0  0  0  0  0  0
   18.0313   16.8937    3.8697 H   0  0  0  0  0  0  0  0  0  0  0  0
   20.3955   15.6300    3.2818 H   0  0  0  0  0  0  0  0  0  0  0  0
   16.9462   14.6587    4.7283 H   0  0  0  0  0  0  0  0  0  0  0  0
   16.7392   15.1018    3.0123 H   0  0  0  0  0  0  0  0  0  0  0  0
   18.8074   13.7775    2.5839 H   0  0  0  0  0  0  0  0  0  0  0  0
   18.6832   13.2283    4.2156 H   0  0  0  0  0  0  0  0  0  0  0  0
   17.6098   12.0532    1.9675 H   0  0  0  0  0  0  0  0  0  0  0  0
   17.3808   11.5910    3.6758 H   0  0  0  0  0  0  0  0  0  0  0  0
   15.5348   13.2347    3.9049 H   0  0  0  0  0  0  0  0  0  0  0  0
   15.8094   13.8235    2.2412 H   0  0  0  0  0  0  0  0  0  0  0  0
   14.6403   11.3966    3.1554 H   0  0  0  0  0  0  0  0  0  0  0  0
   20.0990   17.4449    6.5773 H   0  0  0  0  0  0  0  0  0  0  0  0
   19.7126   18.9580    5.0097 H   0  0  0  0  0  0  0  0  0  0  0  0
   21.6863   15.8486    4.6189 H   0  0  0  0  0  0  0  0  0  0  0  0
   21.6776   16.6727    7.3583 H   0  0  0  0  0  0  0  0  0  0  0  0
   23.5958   17.3489    4.6000 H   0  0  0  0  0  0  0  0  0  0  0  0
   22.1834   18.1296    3.8327 H   0  0  0  0  0  0  0  0  0  0  0  0
   22.6400   18.4405    6.6522 H   0  0  0  0  0  0  0  0  0  0  0  0
  2  1  1  0
  3  1  1  0
  4  3  1  0
  5  3  1  0
  6  5  1  0
  7  6  1  0
  8  7  1  0
  9  8  1  0
 10  1  1  0
 11 10  1  0
 12 10  1  0
 13 12  1  0
 14 12  1  0
 15 14  1  0
  1 16  1  1
  2 17  1  0
  3 18  1  6
  4 19  1  0
  5 20  1  0
  5 21  1  0
  6 22  1  0
  6 23  1  0
  7 24  1  0
  7 25  1  0
  8 26  1  0
  8 27  1  0
  9 28  1  0
 10 29  1  1
 11 30  1  0
 12 31  1  6
 13 32  1  0
 14 33  1  0
 14 34  1  0
 15 35  1  0
M  CHG  1   6   1
M  END
$$$$
=
     RDKit          3D

 35 37  0  0  0  0  0  0  0  0999 V2000
   18.4460   14.3030    3.5760 C   0  0  0  0  0  0  0  0  0  0  0  0
   18.5020   13.0580    3.0050 N   0  0  0  0  0  0  0  0  0  0  0  0
   17.2160   12.6000    2.8960 C   0  0  0  0  0  0  0  0  0  0  0  0
   16.4170   13.6030    3.4010 C   0  0  0  0  0  0  0  0  0  0  0  0
   17.1970   14.6640    3.8170 N   0  0  0  0  0  0  0  0  0  0  0  0
   18.3310   17.2320    5.5060 C   0  0  0  0  0  0  0  0  0  0  0  0
   19.2820   17.6420    4.3900 C   0  0  0  0  0  0  0  0  0  0  0  0
   19.4720   16.5660    3.3160 C   0  0  0  0  0  0  0  0  0  0  0  0
   19.6530   15.1440    3.8870 C   0  0  1  0  0  0  0  0  0  0  0  0
   19.8390   15.1870    5.4140 C   0  0  0  0  0  0  0  0  0  0  0  0
   18.6490   15.8710    6.0240 N   0  0  0  0  0  4  0  0  0  0  0  0
   14.9670   13.5900    3.4910 C   0  0  0  0  0  0  0  0  0  0  0  0
   14.2670   14.5430    4.2440 C   0  0  0  0  0  0  0  0  0  0  0  0
   12.8710   14.5110    4.3090 C   0  0  0  0  0  0  0  0  0  0  0  0
   12.1610   13.5290    3.6240 C   0  0  0  0  0  0  0  0  0  0  0  0
   12.8430   12.5760    2.8710 C   0  0  0  0  0  0  0  0  0  0  0  0
   14.2380   12.6070    2.8040 C   0  0  0  0  0  0  0  0  0  0  0  0
   19.3541   12.5591    2.7120 H   0  0  0  0  0  0  0  0  0  0  0  0
   16.8885   11.6318    2.4894 H   0  0  0  0  0  0  0  0  0  0  0  0
   18.4138   17.9561    6.3299 H   0  0  0  0  0  0  0  0  0  0  0  0
   17.3091   17.2158    5.0993 H   0  0  0  0  0  0  0  0  0  0  0  0
   18.8826   18.5467    3.9083 H   0  0  0  0  0  0  0  0  0  0  0  0
   20.2656   17.8119    4.8522 H   0  0  0  0  0  0  0  0  0  0  0  0
   18.5871   16.5677    2.6625 H   0  0  0  0  0  0  0  0  0  0  0  0
   20.3958   16.8140    2.7728 H   0  0  0  0  0  0  0  0  0  0  0  0
   20.5486   14.7067    3.4215 H   0  0  0  0  0  0  0  0  0  0  0  0
   19.9187   14.1624    5.8064 H   0  0  0  0  0  0  0  0  0  0  0  0
   20.7576   15.7377    5.6647 H   0  0  0  0  0  0  0  0  0  0  0  0
   17.8261   15.2733    5.8612 H   0  0  0  0  0  0  0  0  0  0  0  0
   18.8886   16.0045    7.0168 H   0  0  0  0  0  0  0  0  0  0  0  0
   14.8207   15.3223    4.7881 H   0  0  0  0  0  0  0  0  0  0  0  0
   12.3321   15.2638    4.9030 H   0  0  0  0  0  0  0  0  0  0  0  0
   11.0625   13.5056    3.6773 H   0  0  0  0  0  0  0  0  0  0  0  0
   12.2833   11.7993    2.3293 H   0  0  0  0  0  0  0  0  0  0  0  0
   14.7709   11.8528    2.2063 H   0  0  0  0  0  0  0  0  0  0  0  0
  2  1  1  0
  3  2  1  0
  4  3  2  0
  5  4  1  0
  5  1  2  0
  7  6  1  0
  8  7  1  0
  9  1  1  0
  9  8  1  0
 10  9  1  0
 11 10  1  0
 11  6  1  0
 12  4  1  0
 13 12  2  0
 14 13  1  0
 15 14  2  0
 16 15  1  0
 17 16  2  0
 17 12  1  0
  2 18  1  0
  3 19  1  0
  6 20  1  0
  6 21  1  0
  7 22  1  0
  7 23  1  0
  8 24  1  0
  8 25  1  0
  9 26  1  6
 10 27  1  0
 10 28  1  0
 11 29  1  0
 11 30  1  0
 13 31  1  0
 14 32  1  0
 15 33  1  0
 16 34  1  0
 17 35  1  0
M  CHG  1  11   1
M  END
$$$$
=
     RDKit          3D

 27 28  0  0  0  0  0  0  0  0999 V2000
   21.7480   17.4110    5.1420 C   0  0  0  0  0  0  0  0  0  0  0  0
   21.9960   16.6930    6.2740 N   0  0  0  0  0  0  0  0  0  0  0  0
   21.2520   15.6200    6.1190 C   0  0  0  0  0  0  0  0  0  0  0  0
   20.5640   15.7040    4.9460 N   0  0  0  0  0  0  0  0  0  0  0  0
   20.8720   16.8540    4.2890 N   0  0  0  0  0  0  0  0  0  0  0  0
   22.3310   18.7560    4.8770 C   0  0  0  0  0  0  0  0  0  0  0  0
   23.7740   18.7800    5.2510 N   0  0  0  0  0  4  0  0  0  0  0  0
   19.6260   14.7350    4.4030 C   0  0  0  0  0  0  0  0  0  0  0  0
   18.2050   15.0780    4.7710 C   0  0  0  0  0  0  0  0  0  0  0  0
   17.9140   15.6750    6.0080 C   0  0  0  0  0  0  0  0  0  0  0  0
   16.5960   15.9890    6.3570 C   0  0  0  0  0  0  0  0  0  0  0  0
   15.5560   15.7050    5.4740 C   0  0  0  0  0  0  0  0  0  0  0  0
   15.8410   15.1130    4.2500 C   0  0  0  0  0  0  0  0  0  0  0  0
   17.1490   14.8010    3.8900 C   0  0  0  0  0  0  0  0  0  0  0  0
   14.8430   14.8350    3.4030 F   0  0  0  0  0  0  0  0  0  0  0  0
   21.1939   14.7816    6.8288 H   0  0  0  0  0  0  0  0  0  0  0  0
   22.2300   18.9904    3.8070 H   0  0  0  0  0  0  0  0  0  0  0  0
   21.7937   19.5028    5.4800 H   0  0  0  0  0  0  0  0  0  0  0  0
   23.8627   18.7815    6.2772 H   0  0  0  0  0  0  0  0  0  0  0  0
   24.2421   17.9467    4.8671 H   0  0  0  0  0  0  0  0  0  0  0  0
   24.2141   19.6284    4.8671 H   0  0  0  0  0  0  0  0  0  0  0  0
   19.7187   14.7227    3.3070 H   0  0  0  0  0  0  0  0  0  0  0  0
   19.8643   13.7481    4.8264 H   0  0  0  0  0  0  0  0  0  0  0  0
   18.7308   15.8982    6.7101 H   0  0  0  0  0  0  0  0  0  0  0  0
   16.3809   16.4597    7.3277 H   0  0  0  0  0  0  0  0  0  0  0  0
   14.5176   15.9477    5.7440 H   0  0  0  0  0  0  0  0  0  0  0  0
   17.3547   14.3370    2.9141 H   0  0  0  0  0  0  0  0  0  0  0  0
  2  1  1  0
  3  2  2  0
  4  3  1  0
  5  4  1  0
  5  1  2  0
  6  1  1  0
  7  6  1  0
  8  4  1  0
  9  8  1  0
 10  9  2  0
 11 10  1  0
 12 11  2  0
 13 12  1  0
 14 13  2  0
 14  9  1  0
 15 13  1  0
  3 16  1  0
  6 17  1  0
  6 18  1  0
  7 19  1  0
  7 20  1  0
  7 21  1  0
  8 22  1  0
  8 23  1  0
 10 24  1  0
 11 25  1  0
 12 26  1  0
 14 27  1  0
M  CHG  1   7   1
M  END
$$$$
=
     RDKit          3D

 45 45  0  0  0  0  0  0  0  0999 V2000
   17.1970   15.0710    3.9950 C   0  0  0  0  0  0  0  0  0  0  0  0
   12.8050   11.8500    2.7740 N   0  0  0  0  0  0  0  0  0  0  0  0
   13.8470   12.7180    3.0130 C   0  0  0  0  0  0  0  0  0  0  0  0
   15.0550   12.3200    2.5960 N   0  0  0  0  0  0  0  0  0  0  0  0
   16.1030   13.1140    2.8610 C   0  0  0  0  0  0  0  0  0  0  0  0
   16.0070   14.2880    3.5750 C   0  0  0  0  0  0  0  0  0  0  0  0
   14.7210   14.6370    3.9240 C   0  0  0  0  0  0  0  0  0  0  0  0
   13.6520   13.8660    3.6750 N   0  0  0  0  0  0  0  0  0  0  0  0
   10.5390   11.4370    1.9080 C   0  0  0  0  0  0  0  0  0  0  0  0
   11.4750   12.4130    2.6040 C   0  0  0  0  0  0  0  0  0  0  0  0
   18.4870   14.2610    3.9930 N   0  0  0  0  0  4  0  0  0  0  0  0
   19.4640   14.6140    5.0970 C   0  0  0  0  0  0  0  0  0  0  0  0
   19.6390   16.1470    5.3030 C   0  0  0  0  0  0  0  0  0  0  0  0
   20.5680   16.8480    4.3120 N   0  0  0  0  0  4  0  0  0  0  0  0
   21.9240   17.2980    4.8170 C   0  0  0  0  0  0  0  0  0  0  0  0
   22.1760   18.7550    4.4800 C   0  0  0  0  0  0  0  0  0  0  0  0
   19.8560   17.9370    3.4980 C   0  0  0  0  0  0  0  0  0  0  0  0
   19.5560   17.4490    2.0920 C   0  0  0  0  0  0  0  0  0  0  0  0
   17.3172   15.9194    3.3052 H   0  0  0  0  0  0  0  0  0  0  0  0
   17.0211   15.3980    5.0304 H   0  0  0  0  0  0  0  0  0  0  0  0
   12.9627   10.8337    2.7174 H   0  0  0  0  0  0  0  0  0  0  0  0
   17.0926   12.8113    2.4880 H   0  0  0  0  0  0  0  0  0  0  0  0
   14.5623   15.5987    4.4338 H   0  0  0  0  0  0  0  0  0  0  0  0
    9.9848   10.8592    2.6623 H   0  0  0  0  0  0  0  0  0  0  0  0
    9.8294   11.9946    1.2791 H   0  0  0  0  0  0  0  0  0  0  0  0
   11.1258   10.7513    1.2791 H   0  0  0  0  0  0  0  0  0  0  0  0
   11.5496   13.3289    1.9994 H   0  0  0  0  0  0  0  0  0  0  0  0
   11.0643   12.6326    3.6005 H   0  0  0  0  0  0  0  0  0  0  0  0
   18.2401   13.2658    4.0904 H   0  0  0  0  0  0  0  0  0  0  0  0
   18.9630   14.4780    3.1057 H   0  0  0  0  0  0  0  0  0  0  0  0
   19.0999   14.1754    6.0378 H   0  0  0  0  0  0  0  0  0  0  0  0
   20.4448   14.2126    4.8023 H   0  0  0  0  0  0  0  0  0  0  0  0
   18.6462   16.6140    5.2237 H   0  0  0  0  0  0  0  0  0  0  0  0
   20.1103   16.2647    6.2899 H   0  0  0  0  0  0  0  0  0  0  0  0
   20.8170   16.0765    3.6767 H   0  0  0  0  0  0  0  0  0  0  0  0
   21.9613   17.1701    5.9089 H   0  0  0  0  0  0  0  0  0  0  0  0
   22.6985   16.6876    4.3297 H   0  0  0  0  0  0  0  0  0  0  0  0
   22.2762   19.3344    5.4097 H   0  0  0  0  0  0  0  0  0  0  0  0
   23.1023   18.8407    3.8929 H   0  0  0  0  0  0  0  0  0  0  0  0
   21.3323   19.1468    3.8929 H   0  0  0  0  0  0  0  0  0  0  0  0
   18.9121   18.2014    3.9972 H   0  0  0  0  0  0  0  0  0  0  0  0
   20.5140   18.8161    3.4334 H   0  0  0  0  0  0  0  0  0  0  0  0
   18.9806   16.5129    2.1437 H   0  0  0  0  0  0  0  0  0  0  0  0
   18.9699   18.2106    1.5568 H   0  0  0  0  0  0  0  0  0  0  0  0
   20.5002   17.2699    1.5568 H   0  0  0  0  0  0  0  0  0  0  0  0
  3  2  1  0
  4  3  2  0
  5  4  1  0
  6  5  2  0
  6  1  1  0
  7  6  1  0
  8  7  2  0
  8  3  1  0
 10  9  1  0
 10  2  1  0
 11  1  1  0
 12 11  1  0
 13 12  1  0
 14 13  1  0
 15 14  1  0
 16 15  1  0
 17 14  1  0
 18 17  1  0
  1 19  1  0
  1 20  1  0
  2 21  1  0
  5 22  1  0
  7 23  1  0
  9 24  1  0
  9 25  1  0
  9 26  1  0
 10 27  1  0
 10 28  1  0
 11 29  1  0
 11 30  1  0
 12 31  1  0
 12 32  1  0
 13 33  1  0
 13 34  1  0
 14 35  1  0
 15 36  1  0
 15 37  1  0
 16 38  1  0
 16 39  1  0
 16 40  1  0
 17 41  1  0
 17 42  1  0
 18 43  1  0
 18 44  1  0
 18 45  1  0
M  CHG  2  11   1  14   1
M  END
$$$$
=
     RDKit          3D

 35 36  0  0  0  0  0  0  0  0999 V2000
   16.4270   15.2830    4.8100 C   0  0  2  0  0  0  0  0  0  0  0  0
   15.2920   14.4740    4.2230 C   0  0  0  0  0  0  0  0  0  0  0  0
   13.9560   14.6960    4.6000 C   0  0  0  0  0  0  0  0  0  0  0  0
   12.9280   13.9170    4.0640 C   0  0  0  0  0  0  0  0  0  0  0  0
   13.2200   12.9070    3.1520 C   0  0  0  0  0  0  0  0  0  0  0  0
   14.5380   12.6720    2.7710 C   0  0  0  0  0  0  0  0  0  0  0  0
   15.5690   13.4490    3.3030 C   0  0  0  0  0  0  0  0  0  0  0  0
   15.9710   16.6770    5.0700 N   0  0  0  0  0  4  0  0  0  0  0  0
   17.6920   15.2760    3.9260 C   0  0  0  0  0  0  0  0  0  0  0  0
   19.6990   16.7740    4.3870 C   0  0  0  0  0  0  0  0  0  0  0  0
   20.8410   17.0830    5.1290 C   0  0  0  0  0  0  0  0  0  0  0  0
   21.2550   16.2370    6.1600 C   0  0  0  0  0  0  0  0  0  0  0  0
   20.5260   15.0890    6.4590 C   0  0  0  0  0  0  0  0  0  0  0  0
   19.3770   14.7820    5.7330 C   0  0  0  0  0  0  0  0  0  0  0  0
   18.9510   15.6210    4.6930 C   0  0  0  0  0  0  0  0  0  0  0  0
   19.9170   17.5240    2.1590 C   0  0  0  0  0  0  0  0  0  0  0  0
   19.1950   17.5840    3.3960 O   0  0  0  0  0  0  0  0  0  0  0  0
   16.7128   14.8049    5.7585 H   0  0  0  0  0  0  0  0  0  0  0  0
   13.7182   15.4899    5.3233 H   0  0  0  0  0  0  0  0  0  0  0  0
   11.8858   14.1021    4.3632 H   0  0  0  0  0  0  0  0  0  0  0  0
   12.4088   12.2941    2.7321 H   0  0  0  0  0  0  0  0  0  0  0  0
   14.7676   11.8735    2.0502 H   0  0  0  0  0  0  0  0  0  0  0  0
   16.6084   13.2566    2.9987 H   0  0  0  0  0  0  0  0  0  0  0  0
   15.9186   16.8372    6.0861 H   0  0  0  0  0  0  0  0  0  0  0  0
   16.6389   17.3403    4.6518 H   0  0  0  0  0  0  0  0  0  0  0  0
   15.0402   16.8174    4.6518 H   0  0  0  0  0  0  0  0  0  0  0  0
   17.8103   14.2726    3.4911 H   0  0  0  0  0  0  0  0  0  0  0  0
   17.5569   16.0455    3.1517 H   0  0  0  0  0  0  0  0  0  0  0  0
   21.4148   17.9934    4.9012 H   0  0  0  0  0  0  0  0  0  0  0  0
   22.1596   16.4782    6.7375 H   0  0  0  0  0  0  0  0  0  0  0  0
   20.8577   14.4234    7.2696 H   0  0  0  0  0  0  0  0  0  0  0  0
   18.8011   13.8770    5.9768 H   0  0  0  0  0  0  0  0  0  0  0  0
   20.9935   17.4345    2.3667 H   0  0  0  0  0  0  0  0  0  0  0  0
   19.5814   16.6507    1.5805 H   0  0  0  0  0  0  0  0  0  0  0  0
   19.7301   18.4408    1.5805 H   0  0  0  0  0  0  0  0  0  0  0  0
  2  1  1  0
  3  2  2  0
  4  3  1  0
  5  4  2  0
  6  5  1  0
  7  6  2  0
  7  2  1  0
  8  1  1  0
  9  1  1  0
 11 10  2  0
 12 11  1  0
 13 12  2  0
 14 13  1  0
 15  9  1  0
 15 14  2  0
 15 10  1  0
 17 16  1  0
 17 10  1  0
  1 18  1  1
  3 19  1  0
  4 20  1  0
  5 21  1  0
  6 22  1  0
  7 23  1  0
  8 24  1  0
  8 25  1  0
  8 26  1  0
  9 27  1  0
  9 28  1  0
 11 29  1  0
 12 30  1  0
 13 31  1  0
 14 32  1  0
 16 33  1  0
 16 34  1  0
 16 35  1  0
M  CHG  1   8   1
M  END
$$$$
=
     RDKit          3D

 49 49  0  0  0  0  0  0  0  0999 V2000
   18.4340   14.6380    3.5310 N   0  0  0  0  0  0  0  0  0  0  0  0
   17.0990   14.5590    3.8380 C   0  0  0  0  0  0  0  0  0  0  0  0
   16.5850   15.1380    4.7980 O   0  0  0  0  0  0  0  0  0  0  0  0
   19.2670   15.6770    4.1620 C   0  0  2  0  0  0  0  0  0  0  0  0
   19.1990   16.9630    3.3190 C   0  0  0  0  0  0  0  0  0  0  0  0
   19.0960   16.9660    2.0950 O   0  0  0  0  0  0  0  0  0  0  0  0
   19.2280   18.0660    4.1120 O   0  0  0  0  0  0  0  0  0  0  0  0
   18.8260   19.1830    6.2220 C   0  0  0  0  0  0  0  0  0  0  0  0
   18.5430   17.9600    5.3700 C   0  0  0  0  0  0  0  0  0  0  0  0
   20.6930   15.1720    4.4350 C   0  0  0  0  0  0  0  0  0  0  0  0
   21.2190   15.2450    5.8870 C   0  0  0  0  0  0  0  0  0  0  0  0
   20.0700   14.9430    6.8570 C   0  0  0  0  0  0  0  0  0  0  0  0
   21.8310   16.5980    6.2430 C   0  0  0  0  0  0  0  0  0  0  0  0
   16.2100   13.6480    2.9690 C   0  0  1  0  0  0  0  0  0  0  0  0
   17.1350   12.7680    2.1490 N   0  0  0  0  0  4  0  0  0  0  0  0
   15.2840   12.7320    3.7810 C   0  0  0  0  0  0  0  0  0  0  0  0
   13.8270   13.1150    3.7000 C   0  0  0  0  0  0  0  0  0  0  0  0
   13.3020   14.1410    4.4980 C   0  0  0  0  0  0  0  0  0  0  0  0
   11.9450   14.4630    4.4320 C   0  0  0  0  0  0  0  0  0  0  0  0
   11.1040   13.7760    3.5600 C   0  0  0  0  0  0  0  0  0  0  0  0
   11.6200   12.7720    2.7450 C   0  0  0  0  0  0  0  0  0  0  0  0
   12.9740   12.4450    2.8100 C   0  0  0  0  0  0  0  0  0  0  0  0
   18.8517   13.9745    2.8630 H   0  0  0  0  0  0  0  0  0  0  0  0
   18.8701   15.9241    5.1577 H   0  0  0  0  0  0  0  0  0  0  0  0
   18.7631   18.9112    7.2860 H   0  0  0  0  0  0  0  0  0  0  0  0
   19.8351   19.5598    5.9989 H   0  0  0  0  0  0  0  0  0  0  0  0
   18.0850   19.9648    5.9989 H   0  0  0  0  0  0  0  0  0  0  0  0
   17.4605   17.8847    5.1897 H   0  0  0  0  0  0  0  0  0  0  0  0
   18.8975   17.0629    5.8987 H   0  0  0  0  0  0  0  0  0  0  0  0
   20.7324   14.1174    4.1246 H   0  0  0  0  0  0  0  0  0  0  0  0
   21.3420   15.8580    3.8709 H   0  0  0  0  0  0  0  0  0  0  0  0
   22.0212   14.4972    5.9727 H   0  0  0  0  0  0  0  0  0  0  0  0
   20.4297   15.0375    7.8922 H   0  0  0  0  0  0  0  0  0  0  0  0
   19.2498   15.6561    6.6872 H   0  0  0  0  0  0  0  0  0  0  0  0
   19.7064   13.9188    6.6872 H   0  0  0  0  0  0  0  0  0  0  0  0
   21.8783   16.7026    7.3370 H   0  0  0  0  0  0  0  0  0  0  0  0
   22.8461   16.6629    5.8242 H   0  0  0  0  0  0  0  0  0  0  0  0
   21.2094   17.4032    5.8242 H   0  0  0  0  0  0  0  0  0  0  0  0
   15.5648   14.2960    2.3577 H   0  0  0  0  0  0  0  0  0  0  0  0
   17.7245   12.2072    2.7805 H   0  0  0  0  0  0  0  0  0  0  0  0
   16.5745   12.1404    1.5549 H   0  0  0  0  0  0  0  0  0  0  0  0
   17.7339   13.3590    1.5549 H   0  0  0  0  0  0  0  0  0  0  0  0
   15.3943   11.7046    3.4038 H   0  0  0  0  0  0  0  0  0  0  0  0
   15.5827   12.8269    4.8354 H   0  0  0  0  0  0  0  0  0  0  0  0
   13.9630   14.6957    5.1802 H   0  0  0  0  0  0  0  0  0  0  0  0
   11.5391   15.2615    5.0705 H   0  0  0  0  0  0  0  0  0  0  0  0
   10.0338   14.0262    3.5152 H   0  0  0  0  0  0  0  0  0  0  0  0
   10.9585   12.2358    2.0487 H   0  0  0  0  0  0  0  0  0  0  0  0
   13.3765   11.6555    2.1583 H   0  0  0  0  0  0  0  0  0  0  0  0
  2  1  1  0
  3  2  2  0
  4  1  1  0
  5  4  1  0
  6  5  2  0
  7  5  1  0
  9  7  1  0
  9  8  1  0
 10  4  1  0
 11 10  1  0
 12 11  1  0
 13 11  1  0
 14  2  1  0
 15 14  1  0
 16 14  1  0
 17 16  1  0
 18 17  2  0
 19 18  1  0
 20 19  2  0
 21 20  1  0
 22 21  2  0
 22 17  1  0
  1 23  1  0
  4 24  1  1
  8 25  1  0
  8 26  1  0
  8 27  1  0
  9 28  1  0
  9 29  1  0
 10 30  1  0
 10 31  1  0
 11 32  1  0
 12 33  1  0
 12 34  1  0
 12 35  1  0
 13 36  1  0
 13 37  1  0
 13 38  1  0
 14 39  1  6
 15 40  1  0
 15 41  1  0
 15 42  1  0
 16 43  1  0
 16 44  1  0
 18 45  1  0
 19 46  1  0
 20 47  1  0
 21 48  1  0
 22 49  1  0
M  CHG  1  15   1
M  END
$$$$
=
     RDKit          3D

 25 26  0  0  0  0  0  0  0  0999 V2000
   18.9570   16.6900    4.1710 C   0  0  2  0  0  0  0  0  0  0  0  0
   19.3060   17.5640    2.9930 C   0  0  0  0  0  0  0  0  0  0  0  0
   19.6180   18.0330    4.3920 C   0  0  2  0  0  0  0  0  0  0  0  0
   21.1010   18.1190    4.8430 C   0  0  0  0  0  0  0  0  0  0  0  0
   22.1220   18.6900    4.1170 C   0  0  0  0  0  0  0  0  0  0  0  0
   23.2940   18.5420    4.8990 C   0  0  0  0  0  0  0  0  0  0  0  0
   22.9100   17.8920    6.0480 C   0  0  0  0  0  0  0  0  0  0  0  0
   21.5760   17.6400    6.0270 O   0  0  0  0  0  0  0  0  0  0  0  0
   19.3890   14.8170    5.7700 C   0  0  0  0  0  0  0  0  0  0  0  0
   19.6750   15.3900    4.3870 C   0  0  1  0  0  0  0  0  0  0  0  0
   19.2640   14.3780    3.3770 N   0  0  0  0  0  4  0  0  0  0  0  0
   18.0461   16.2126    4.5613 H   0  0  0  0  0  0  0  0  0  0  0  0
   20.1228   17.2732    2.3161 H   0  0  0  0  0  0  0  0  0  0  0  0
   18.7469   17.9791    2.1415 H   0  0  0  0  0  0  0  0  0  0  0  0
   19.3767   18.9184    4.9986 H   0  0  0  0  0  0  0  0  0  0  0  0
   22.0435   19.1656    3.1283 H   0  0  0  0  0  0  0  0  0  0  0  0
   24.3081   18.8795    4.6390 H   0  0  0  0  0  0  0  0  0  0  0  0
   23.5880   17.6151    6.8687 H   0  0  0  0  0  0  0  0  0  0  0  0
   19.7405   15.5212    6.5385 H   0  0  0  0  0  0  0  0  0  0  0  0
   18.3064   14.6592    5.8848 H   0  0  0  0  0  0  0  0  0  0  0  0
   19.9137   13.8570    5.8848 H   0  0  0  0  0  0  0  0  0  0  0  0
   20.7492   15.6065    4.2906 H   0  0  0  0  0  0  0  0  0  0  0  0
   18.9211   13.5336    3.8569 H   0  0  0  0  0  0  0  0  0  0  0  0
   18.5140   14.7663    2.7874 H   0  0  0  0  0  0  0  0  0  0  0  0
   20.0724   14.1334    2.7874 H   0  0  0  0  0  0  0  0  0  0  0  0
  2  1  1  0
  3  2  1  0
  3  1  1  0
  4  3  1  0
  5  4  2  0
  6  5  1  0
  7  6  2  0
  8  4  1  0
  8  7  1  0
 10  9  1  0
 10  1  1  0
 11 10  1  0
  1 12  1  1
  2 13  1  0
  2 14  1  0
  3 15  1  1
  5 16  1  0
  6 17  1  0
  7 18  1  0
  9 19  1  0
  9 20  1  0
  9 21  1  0
 10 22  1  1
 11 23  1  0
 11 24  1  0
 11 25  1  0
M  CHG  1  11   1
M  END
$$$$
=
     RDKit          3D

 42 42  0  0  0  0  0  0  0  0999 V2000
   17.5190   15.7780    6.0480 C   0  0  0  0  0  0  0  0  0  0  0  0
   18.8280   16.5540    5.9520 N   0  0  0  0  0  4  0  0  0  0  0  0
   18.6910   17.8120    5.0570 C   0  0  1  0  0  0  0  0  0  0  0  0
   19.2290   19.0150    5.8270 C   0  0  0  0  0  0  0  0  0  0  0  0
   19.4050   17.6340    3.7090 C   0  0  0  0  0  0  0  0  0  0  0  0
   19.2770   16.2190    3.1610 C   0  0  0  0  0  0  0  0  0  0  0  0
   19.8510   15.1790    4.1250 C   0  0  0  0  0  0  0  0  0  0  0  0
   20.0460   15.7240    5.5400 C   0  0  2  0  0  0  0  0  0  0  0  0
   20.3520   14.6420    6.5700 C   0  0  0  0  0  0  0  0  0  0  0  0
   16.3540   16.5690    5.4320 C   0  0  0  0  0  0  0  0  0  0  0  0
   15.2790   15.7380    4.7060 C   0  0  0  0  0  0  0  0  0  0  0  0
   15.8640   14.6900    3.7460 C   0  0  0  0  0  0  0  0  0  0  0  0
   14.9570   13.4770    3.5130 C   0  0  0  0  0  0  0  0  0  0  0  0
   15.4970   12.5980    2.4470 N   0  0  0  0  0  4  0  0  0  0  0  0
   17.6278   14.8241    5.5112 H   0  0  0  0  0  0  0  0  0  0  0  0
   17.2962   15.6034    7.1110 H   0  0  0  0  0  0  0  0  0  0  0  0
   19.0147   16.8502    6.9207 H   0  0  0  0  0  0  0  0  0  0  0  0
   17.6298   17.9753    4.8178 H   0  0  0  0  0  0  0  0  0  0  0  0
   19.1446   18.8264    6.9074 H   0  0  0  0  0  0  0  0  0  0  0  0
   20.2849   19.1761    5.5643 H   0  0  0  0  0  0  0  0  0  0  0  0
   18.6452   19.9095    5.5643 H   0  0  0  0  0  0  0  0  0  0  0  0
   18.9663   18.3341    2.9828 H   0  0  0  0  0  0  0  0  0  0  0  0
   20.4747   17.8336    3.8696 H   0  0  0  0  0  0  0  0  0  0  0  0
   18.2127   15.9981    2.9922 H   0  0  0  0  0  0  0  0  0  0  0  0
   19.8475   16.1645    2.2221 H   0  0  0  0  0  0  0  0  0  0  0  0
   19.1609   14.3236    4.1702 H   0  0  0  0  0  0  0  0  0  0  0  0
   20.8407   14.8864    3.7444 H   0  0  0  0  0  0  0  0  0  0  0  0
   20.9365   16.3693    5.5164 H   0  0  0  0  0  0  0  0  0  0  0  0
   20.2349   15.0559    7.5824 H   0  0  0  0  0  0  0  0  0  0  0  0
   19.6566   13.8004    6.4353 H   0  0  0  0  0  0  0  0  0  0  0  0
   21.3851   14.2892    6.4353 H   0  0  0  0  0  0  0  0  0  0  0  0
   15.8590   17.1241    6.2425 H   0  0  0  0  0  0  0  0  0  0  0  0
   16.8065   17.2068    4.6584 H   0  0  0  0  0  0  0  0  0  0  0  0
   14.6708   15.2184    5.4611 H   0  0  0  0  0  0  0  0  0  0  0  0
   14.6822   16.4362    4.1007 H   0  0  0  0  0  0  0  0  0  0  0  0
   16.0476   15.1750    2.7759 H   0  0  0  0  0  0  0  0  0  0  0  0
   16.7848   14.3114    4.2138 H   0  0  0  0  0  0  0  0  0  0  0  0
   14.8806   12.9018    4.4475 H   0  0  0  0  0  0  0  0  0  0  0  0
   13.9673   13.8386    3.1971 H   0  0  0  0  0  0  0  0  0  0  0  0
   15.9873   11.8000    2.8756 H   0  0  0  0  0  0  0  0  0  0  0  0
   14.7228   12.2516    1.8626 H   0  0  0  0  0  0  0  0  0  0  0  0
   16.1559   13.1321    1.8626 H   0  0  0  0  0  0  0  0  0  0  0  0
  2  1  1  0
  3  2  1  0
  4  3  1  0
  5  3  1  0
  6  5  1  0
  7  6  1  0
  8  7  1  0
  8  2  1  0
  9  8  1  0
 10  1  1  0
 11 10  1  0
 12 11  1  0
 13 12  1  0
 14 13  1  0
  1 15  1  0
  1 16  1  0
  2 17  1  0
  3 18  1  6
  4 19  1  0
  4 20  1  0
  4 21  1  0
  5 22  1  0
  5 23  1  0
  6 24  1  0
  6 25  1  0
  7 26  1  0
  7 27  1  0
  8 28  1  6
  9 29  1  0
  9 30  1  0
  9 31  1  0
 10 32  1  0
 10 33  1  0
 11 34  1  0
 11 35  1  0
 12 36  1  0
 12 37  1  0
 13 38  1  0
 13 39  1  0
 14 40  1  0
 14 41  1  0
 14 42  1  0
M  CHG  2   2   1  14   1
M  END
$$$$
=
     RDKit          3D

 27 27  0  0  0  0  0  0  0  0999 V2000
   20.4110   17.3980    3.8020 C   0  0  0  0  0  0  0  0  0  0  0  0
   21.1460   18.2720    4.6120 C   0  0  0  0  0  0  0  0  0  0  0  0
   21.7540   17.7940    5.7720 C   0  0  0  0  0  0  0  0  0  0  0  0
   21.6100   16.4560    6.0890 C   0  0  0  0  0  0  0  0  0  0  0  0
   20.9100   15.5880    5.3320 N   0  0  0  0  0  0  0  0  0  0  0  0
   20.3300   16.0660    4.2170 C   0  0  0  0  0  0  0  0  0  0  0  0
   19.7150   17.7830    2.5330 C   0  0  0  0  0  0  0  0  0  0  0  0
   20.4210   17.4220    1.2790 N   0  0  0  0  0  4  0  0  0  0  0  0
   19.6060   15.2130    3.4050 O   0  0  0  0  0  0  0  0  0  0  0  0
   18.5570   14.4770    4.0570 C   0  0  0  0  0  0  0  0  0  0  0  0
   18.3420   13.1410    3.3510 C   0  0  0  0  0  0  0  0  0  0  0  0
   17.2960   15.3320    3.9500 C   0  0  0  0  0  0  0  0  0  0  0  0
   21.2434   19.3319    4.3342 H   0  0  0  0  0  0  0  0  0  0  0  0
   22.3351   18.4662    6.4204 H   0  0  0  0  0  0  0  0  0  0  0  0
   22.0907   16.0812    7.0047 H   0  0  0  0  0  0  0  0  0  0  0  0
   18.7325   17.2884    2.5225 H   0  0  0  0  0  0  0  0  0  0  0  0
   19.6602   18.8816    2.5416 H   0  0  0  0  0  0  0  0  0  0  0  0
   21.3152   16.9648    1.5078 H   0  0  0  0  0  0  0  0  0  0  0  0
   19.8361   16.7765    0.7293 H   0  0  0  0  0  0  0  0  0  0  0  0
   20.6019   18.2741    0.7293 H   0  0  0  0  0  0  0  0  0  0  0  0
   18.8093   14.2679    5.1071 H   0  0  0  0  0  0  0  0  0  0  0  0
   18.2141   12.3464    4.1009 H   0  0  0  0  0  0  0  0  0  0  0  0
   17.4417   13.1996    2.7217 H   0  0  0  0  0  0  0  0  0  0  0  0
   19.2152   12.9142    2.7217 H   0  0  0  0  0  0  0  0  0  0  0  0
   16.9331   15.5780    4.9589 H   0  0  0  0  0  0  0  0  0  0  0  0
   17.5274   16.2603    3.4070 H   0  0  0  0  0  0  0  0  0  0  0  0
   16.5193   14.7735    3.4070 H   0  0  0  0  0  0  0  0  0  0  0  0
  2  1  2  0
  3  2  1  0
  4  3  2  0
  5  4  1  0
  6  5  2  0
  6  1  1  0
  7  1  1  0
  8  7  1  0
  9  6  1  0
 10  9  1  0
 11 10  1  0
 12 10  1  0
  2 13  1  0
  3 14  1  0
  4 15  1  0
  7 16  1  0
  7 17  1  0
  8 18  1  0
  8 19  1  0
  8 20  1  0
 10 21  1  0
 11 22  1  0
 11 23  1  0
 11 24  1  0
 12 25  1  0
 12 26  1  0
 12 27  1  0
M  CHG  1   8   1
M  END
$$$$
=
     RDKit          3D

 34 35  0  0  0  0  0  0  0  0999 V2000
   18.9300   16.2670    4.4240 N   0  0  1  0  0  4  0  0  0  0  0  0
   19.2330   17.5660    3.6420 C   0  0  0  0  0  0  0  0  0  0  0  0
   20.7470   17.8130    3.4620 C   0  0  0  0  0  0  0  0  0  0  0  0
   21.4600   17.8720    4.7940 N   0  0  0  0  0  4  0  0  0  0  0  0
   20.9170   16.9670    5.8800 C   0  0  0  0  0  0  0  0  0  0  0  0
   20.1200   15.7740    5.2870 C   0  0  1  0  0  0  0  0  0  0  0  0
   19.6960   14.7820    6.3600 C   0  0  0  0  0  0  0  0  0  0  0  0
   17.5650   16.3460    5.1260 C   0  0  0  0  0  0  0  0  0  0  0  0
   16.3340   12.7060    2.1130 F   0  0  0  0  0  0  0  0  0  0  0  0
   15.9600   13.5750    3.0590 C   0  0  0  0  0  0  0  0  0  0  0  0
   16.9040   14.4760    3.5550 C   0  0  0  0  0  0  0  0  0  0  0  0
   16.5510   15.3880    4.5610 C   0  0  0  0  0  0  0  0  0  0  0  0
   15.2300   15.3770    5.0350 C   0  0  0  0  0  0  0  0  0  0  0  0
   14.3060   14.4660    4.5200 C   0  0  0  0  0  0  0  0  0  0  0  0
   14.6590   13.5580    3.5350 C   0  0  0  0  0  0  0  0  0  0  0  0
   13.0580   14.4710    5.0030 F   0  0  0  0  0  0  0  0  0  0  0  0
   18.8291   15.4994    3.7447 H   0  0  0  0  0  0  0  0  0  0  0  0
   18.7672   17.4953    2.6480 H   0  0  0  0  0  0  0  0  0  0  0  0
   18.8256   18.4066    4.2229 H   0  0  0  0  0  0  0  0  0  0  0  0
   21.1742   16.9948    2.8636 H   0  0  0  0  0  0  0  0  0  0  0  0
   20.8815   18.7798    2.9549 H   0  0  0  0  0  0  0  0  0  0  0  0
   22.4453   17.6172    4.6353 H   0  0  0  0  0  0  0  0  0  0  0  0
   21.3226   18.8326    5.1395 H   0  0  0  0  0  0  0  0  0  0  0  0
   21.7578   16.5754    6.4713 H   0  0  0  0  0  0  0  0  0  0  0  0
   20.2342   17.5571    6.5090 H   0  0  0  0  0  0  0  0  0  0  0  0
   20.7949   15.2237    4.6149 H   0  0  0  0  0  0  0  0  0  0  0  0
   19.8813   15.2154    7.3539 H   0  0  0  0  0  0  0  0  0  0  0  0
   18.6242   14.5597    6.2509 H   0  0  0  0  0  0  0  0  0  0  0  0
   20.2760   13.8537    6.2509 H   0  0  0  0  0  0  0  0  0  0  0  0
   17.7066   16.1164    6.1924 H   0  0  0  0  0  0  0  0  0  0  0  0
   17.1759   17.3630    4.9703 H   0  0  0  0  0  0  0  0  0  0  0  0
   17.9288   14.4709    3.1554 H   0  0  0  0  0  0  0  0  0  0  0  0
   14.9216   16.0887    5.8150 H   0  0  0  0  0  0  0  0  0  0  0  0
   13.9241   12.8409    3.1404 H   0  0  0  0  0  0  0  0  0  0  0  0
  2  1  1  0
  3  2  1  0
  4  3  1  0
  5  4  1  0
  6  1  1  0
  6  5  1  0
  7  6  1  0
  8  1  1  0
 10  9  1  0
 11 10  2  0
 12 11  1  0
 12  8  1  0
 13 12  2  0
 14 13  1  0
 15 14  2  0
 15 10  1  0
 16 14  1  0
  1 17  1  6
  2 18  1  0
  2 19  1  0
  3 20  1  0
  3 21  1  0
  4 22  1  0
  4 23  1  0
  5 24  1  0
  5 25  1  0
  6 26  1  6
  7 27  1  0
  7 28  1  0
  7 29  1  0
  8 30  1  0
  8 31  1  0
 11 32  1  0
 13 33  1  0
 15 34  1  0
M  CHG  2   1   1   4   1
M  END
$$$$
=
     RDKit          3D

 46 48  0  0  0  0  0  0  0  0999 V2000
   22.6440   25.8160   14.2890 C   0  0  1  0  0  0  0  0  0  0  0  0
   23.2820   24.7510   13.5850 O   0  0  0  0  0  0  0  0  0  0  0  0
   24.4960   25.0980   13.0560 C   0  0  0  0  0  0  0  0  0  0  0  0
   24.9390   24.3130   11.9920 C   0  0  0  0  0  0  0  0  0  0  0  0
   26.1610   24.5910   11.3820 C   0  0  0  0  0  0  0  0  0  0  0  0
   26.9270   25.6780   11.8030 C   0  0  0  0  0  0  0  0  0  0  0  0
   26.5120   26.4070   12.9260 C   0  0  0  0  0  0  0  0  0  0  0  0
   25.2910   26.1340   13.5610 C   0  0  0  0  0  0  0  0  0  0  0  0
   24.8510   26.8350   14.7180 N   0  0  0  0  0  0  0  0  0  0  0  0
   23.5630   26.6430   15.1970 C   0  0  0  0  0  0  0  0  0  0  0  0
   23.1480   27.1480   16.2420 O   0  0  0  0  0  0  0  0  0  0  0  0
   28.1990   25.8970   11.2540 N   0  0  0  0  0  0  0  0  0  0  0  0
   20.9410   25.9310   12.3850 C   0  0  0  0  0  0  0  0  0  0  0  0
   21.8950   26.7060   13.2810 C   0  0  0  0  0  0  0  0  0  0  0  0
   25.7090   27.7800   15.4250 C   0  0  0  0  0  0  0  0  0  0  0  0
   26.8170   27.0710   16.2240 C   0  0  0  0  0  0  0  0  0  0  0  0
   26.6020   26.0260   16.8430 O   0  0  0  0  0  0  0  0  0  0  0  0
   28.0660   27.6930   16.2550 N   0  0  0  0  0  0  0  0  0  0  0  0
   29.1690   27.0140   16.9360 C   0  0  0  0  0  0  0  0  0  0  0  0
   30.4990   27.2660   16.2370 C   0  0  0  0  0  0  0  0  0  0  0  0
   30.8300   28.7550   16.1420 C   0  0  0  0  0  0  0  0  0  0  0  0
   29.5900   29.6470   16.1770 C   0  0  0  0  0  0  0  0  0  0  0  0
   28.3690   28.9570   15.5810 C   0  0  0  0  0  0  0  0  0  0  0  0
   21.9381   25.3478   14.9907 H   0  0  0  0  0  0  0  0  0  0  0  0
   24.3239   23.4742   11.6340 H   0  0  0  0  0  0  0  0  0  0  0  0
   26.5231   23.9501   10.5646 H   0  0  0  0  0  0  0  0  0  0  0  0
   27.1560   27.2085   13.3170 H   0  0  0  0  0  0  0  0  0  0  0  0
   28.7633   26.7002   11.5661 H   0  0  0  0  0  0  0  0  0  0  0  0
   28.5688   25.2546   10.5388 H   0  0  0  0  0  0  0  0  0  0  0  0
   20.2369   25.3590   13.0071 H   0  0  0  0  0  0  0  0  0  0  0  0
   20.3818   26.6339   11.7500 H   0  0  0  0  0  0  0  0  0  0  0  0
   21.5144   25.2397   11.7500 H   0  0  0  0  0  0  0  0  0  0  0  0
   22.6359   27.2133   12.6456 H   0  0  0  0  0  0  0  0  0  0  0  0
   21.2899   27.4174   13.8621 H   0  0  0  0  0  0  0  0  0  0  0  0
   26.1764   28.4526   14.6907 H   0  0  0  0  0  0  0  0  0  0  0  0
   25.0831   28.3386   16.1365 H   0  0  0  0  0  0  0  0  0  0  0  0
   29.2329   27.3849   17.9696 H   0  0  0  0  0  0  0  0  0  0  0  0
   28.9705   25.9322   16.9187 H   0  0  0  0  0  0  0  0  0  0  0  0
   31.2968   26.7614   16.8016 H   0  0  0  0  0  0  0  0  0  0  0  0
   30.4215   26.8720   15.2129 H   0  0  0  0  0  0  0  0  0  0  0  0
   31.4792   29.0242   16.9882 H   0  0  0  0  0  0  0  0  0  0  0  0
   31.3261   28.9201   15.1742 H   0  0  0  0  0  0  0  0  0  0  0  0
   29.3728   29.9112   17.2225 H   0  0  0  0  0  0  0  0  0  0  0  0
   29.8004   30.5425   15.5739 H   0  0  0  0  0  0  0  0  0  0  0  0
   27.5015   29.6266   15.6765 H   0  0  0  0  0  0  0  0  0  0  0  0
   28.5875   28.7342   14.5262 H   0  0  0  0  0  0  0  0  0  0  0  0
  2  1  1  0
  3  2  1  0
  4  3  2  0
  5  4  1  0
  6  5  2  0
  7  6  1  0
  8  7  2  0
  8  3  1  0
  9  8  1  0
 10  9  1  0
 10  1  1  0
 11 10  2  0
 12  6  1  0
 14 13  1  0
 14  1  1  0
 15  9  1  0
 16 15  1  0
 17 16  2  0
 18 16  1  0
 19 18  1  0
 20 19  1  0
 21 20  1  0
 22 21  1  0
 23 22  1  0
 23 18  1  0
  1 24  1  1
  4 25  1  0
  5 26  1  0
  7 27  1  0
 12 28  1  0
 12 29  1  0
 13 30  1  0
 13 31  1  0
 13 32  1  0
 14 33  1  0
 14 34  1  0
 15 35  1  0
 15 36  1  0
 19 37  1  0
 19 38  1  0
 20 39  1  0
 20 40  1  0
 21 41  1  0
 21 42  1  0
 22 43  1  0
 22 44  1  0
 23 45  1  0
 23 46  1  0
M  END
$$$$
=
     RDKit          3D

 24 23  0  0  0  0  0  0  0  0999 V2000
   18.1980   15.6770    4.2560 S   0  0  0  0  0  0  0  0  0  0  0  0
   19.3630   16.4800    3.0930 C   0  0  0  0  0  0  0  0  0  0  0  0
   19.5060   17.9710    3.3720 C   0  0  0  0  0  0  0  0  0  0  0  0
   20.0880   18.1770    4.7470 C   0  0  0  0  0  0  0  0  0  0  0  0
   19.5110   18.7500    5.6600 O   0  0  0  0  0  0  0  0  0  0  0  0
   22.3790   18.6400    4.5810 C   0  0  0  0  0  0  0  0  0  0  0  0
   21.3490   17.6720    4.7990 O   0  0  0  0  0  0  0  0  0  0  0  0
   19.3100   14.4360    5.0160 C   0  0  0  0  0  0  0  0  0  0  0  0
   19.7730   14.8910    6.4020 C   0  0  0  0  0  0  0  0  0  0  0  0
   21.2500   15.0910    6.4120 N   0  0  0  0  0  4  0  0  0  0  0  0
   20.3494   16.0034    3.1918 H   0  0  0  0  0  0  0  0  0  0  0  0
   18.9653   16.3601    2.0745 H   0  0  0  0  0  0  0  0  0  0  0  0
   20.1726   18.4211    2.6216 H   0  0  0  0  0  0  0  0  0  0  0  0
   18.5161   18.4479    3.3202 H   0  0  0  0  0  0  0  0  0  0  0  0
   22.7583   18.9964    5.5501 H   0  0  0  0  0  0  0  0  0  0  0  0
   23.2006   18.1796    4.0126 H   0  0  0  0  0  0  0  0  0  0  0  0
   21.9704   19.4885    4.0126 H   0  0  0  0  0  0  0  0  0  0  0  0
   18.7718   13.4814    5.1118 H   0  0  0  0  0  0  0  0  0  0  0  0
   20.1942   14.3167    4.3726 H   0  0  0  0  0  0  0  0  0  0  0  0
   19.2764   15.8386    6.6579 H   0  0  0  0  0  0  0  0  0  0  0  0
   19.5107   14.1181    7.1394 H   0  0  0  0  0  0  0  0  0  0  0  0
   21.5838   15.1362    7.3854 H   0  0  0  0  0  0  0  0  0  0  0  0
   21.7063   14.3041    5.9288 H   0  0  0  0  0  0  0  0  0  0  0  0
   21.4806   15.9709    5.9288 H   0  0  0  0  0  0  0  0  0  0  0  0
  2  1  1  0
  3  2  1  0
  4  3  1  0
  5  4  2  0
  7  4  1  0
  7  6  1  0
  8  1  1  0
  9  8  1  0
 10  9  1  0
  2 11  1  0
  2 12  1  0
  3 13  1  0
  3 14  1  0
  6 15  1  0
  6 16  1  0
  6 17  1  0
  8 18  1  0
  8 19  1  0
  9 20  1  0
  9 21  1  0
 10 22  1  0
 10 23  1  0
 10 24  1  0
M  CHG  1  10   1
M  END
$$$$
=
     RDKit          3D

 48 48  0  0  0  0  0  0  0  0999 V2000
   17.8780   15.1050    3.6250 C   0  0  1  0  0  0  0  0  0  0  0  0
   18.1390   16.4890    3.0100 C   0  0  0  0  0  0  0  0  0  0  0  0
   19.6210   16.7160    3.2970 C   0  0  0  0  0  0  0  0  0  0  0  0
   19.8820   15.9450    4.5010 N   0  0  0  0  0  0  0  0  0  0  0  0
   18.7580   15.1190    4.8830 C   0  0  0  0  0  0  0  0  0  0  0  0
   21.0410   15.9750    5.2350 C   0  0  0  0  0  0  0  0  0  0  0  0
   21.2030   15.2960    6.2390 O   0  0  0  0  0  0  0  0  0  0  0  0
   15.8530   13.6360    3.2980 C   0  0  0  0  0  0  0  0  0  0  0  0
   14.6630   13.3460    3.4550 O   0  0  0  0  0  0  0  0  0  0  0  0
   16.4610   14.7590    3.8490 N   0  0  0  0  0  0  0  0  0  0  0  0
   15.6660   15.6400    4.7500 C   0  0  0  0  0  0  0  0  0  0  0  0
   15.4920   15.0460    6.1510 C   0  0  0  0  0  0  0  0  0  0  0  0
   14.3240   16.0360    4.1330 C   0  0  0  0  0  0  0  0  0  0  0  0
   16.6780   12.6720    2.4410 C   0  0  0  0  0  0  0  0  0  0  0  0
   17.7620   12.0640    3.2790 N   0  0  0  0  0  4  0  0  0  0  0  0
   21.9490   16.8220    4.6950 O   0  0  0  0  0  0  0  0  0  0  0  0
   22.1640   18.1420    5.2570 C   0  0  0  0  0  0  0  0  0  0  0  0
   20.9110   18.6500    5.9800 C   0  0  0  0  0  0  0  0  0  0  0  0
   23.3990   18.1670    6.1640 C   0  0  0  0  0  0  0  0  0  0  0  0
   22.4300   19.0440    4.0420 C   0  0  0  0  0  0  0  0  0  0  0  0
   18.1404   14.2893    2.9352 H   0  0  0  0  0  0  0  0  0  0  0  0
   17.9416   16.4848    1.9279 H   0  0  0  0  0  0  0  0  0  0  0  0
   17.4912   17.2766    3.4223 H   0  0  0  0  0  0  0  0  0  0  0  0
   20.2385   16.3535    2.4620 H   0  0  0  0  0  0  0  0  0  0  0  0
   19.8638   17.7815    3.4224 H   0  0  0  0  0  0  0  0  0  0  0  0
   19.0879   14.1024    5.1432 H   0  0  0  0  0  0  0  0  0  0  0  0
   18.2301   15.4984    5.7703 H   0  0  0  0  0  0  0  0  0  0  0  0
   16.2524   16.5629    4.8698 H   0  0  0  0  0  0  0  0  0  0  0  0
   15.7170   15.8142    6.9055 H   0  0  0  0  0  0  0  0  0  0  0  0
   14.4551   14.7011    6.2768 H   0  0  0  0  0  0  0  0  0  0  0  0
   16.1789   14.1961    6.2768 H   0  0  0  0  0  0  0  0  0  0  0  0
   13.6009   16.2494    4.9340 H   0  0  0  0  0  0  0  0  0  0  0  0
   14.4571   16.9332    3.5106 H   0  0  0  0  0  0  0  0  0  0  0  0
   13.9487   15.2103    3.5106 H   0  0  0  0  0  0  0  0  0  0  0  0
   16.0254   11.8767    2.0517 H   0  0  0  0  0  0  0  0  0  0  0  0
   17.1276   13.2206    1.6002 H   0  0  0  0  0  0  0  0  0  0  0  0
   17.5368   12.1903    4.2761 H   0  0  0  0  0  0  0  0  0  0  0  0
   17.8356   11.0585    3.0684 H   0  0  0  0  0  0  0  0  0  0  0  0
   18.6584   12.5254    3.0684 H   0  0  0  0  0  0  0  0  0  0  0  0
   21.0646   18.5877    7.0674 H   0  0  0  0  0  0  0  0  0  0  0  0
   20.7222   19.6957    5.6956 H   0  0  0  0  0  0  0  0  0  0  0  0
   20.0473   18.0310    5.6956 H   0  0  0  0  0  0  0  0  0  0  0  0
   23.0808   18.1606    7.2170 H   0  0  0  0  0  0  0  0  0  0  0  0
   24.0195   17.2812    5.9630 H   0  0  0  0  0  0  0  0  0  0  0  0
   23.9832   19.0772    5.9630 H   0  0  0  0  0  0  0  0  0  0  0  0
   22.7255   20.0459    4.3868 H   0  0  0  0  0  0  0  0  0  0  0  0
   23.2390   18.6119    3.4346 H   0  0  0  0  0  0  0  0  0  0  0  0
   21.5160   19.1200    3.4346 H   0  0  0  0  0  0  0  0  0  0  0  0
  2  1  1  0
  3  2  1  0
  4  3  1  0
  5  4  1  0
  5  1  1  0
  6  4  1  0
  7  6  2  0
  9  8  2  0
 10  8  1  0
 10  1  1  0
 11 10  1  0
 12 11  1  0
 13 11  1  0
 14  8  1  0
 15 14  1  0
 16  6  1  0
 17 16  1  0
 18 17  1  0
 19 17  1  0
 20 17  1  0
  1 21  1  6
  2 22  1  0
  2 23  1  0
  3 24  1  0
  3 25  1  0
  5 26  1  0
  5 27  1  0
 11 28  1  0
 12 29  1  0
 12 30  1  0
 12 31  1  0
 13 32  1  0
 13 33  1  0
 13 34  1  0
 14 35  1  0
 14 36  1  0
 15 37  1  0
 15 38  1  0
 15 39  1  0
 18 40  1  0
 18 41  1  0
 18 42  1  0
 19 43  1  0
 19 44  1  0
 19 45  1  0
 20 46  1  0
 20 47  1  0
 20 48  1  0
M  CHG  1  15   1
M  END
$$$$
=
     RDKit          3D

 26 27  0  0  0  0  0  0  0  0999 V2000
   19.5720   16.7310    4.0080 C   0  0  0  0  0  0  0  0  0  0  0  0
   20.0330   15.5250    3.5860 O   0  0  0  0  0  0  0  0  0  0  0  0
   18.9250   14.6780    3.5460 N   0  0  0  0  0  0  0  0  0  0  0  0
   17.9140   15.4590    3.9520 C   0  0  0  0  0  0  0  0  0  0  0  0
   18.2780   16.7610    4.2430 N   0  0  0  0  0  0  0  0  0  0  0  0
   16.4380   14.9800    4.0750 C   0  0  0  0  0  0  0  0  0  0  0  0
   15.4620   15.5240    4.8850 C   0  0  0  0  0  0  0  0  0  0  0  0
   14.2850   14.7680    4.6670 C   0  0  0  0  0  0  0  0  0  0  0  0
   14.6130   13.8070    3.7400 C   0  0  0  0  0  0  0  0  0  0  0  0
   15.9180   13.9230    3.3760 O   0  0  0  0  0  0  0  0  0  0  0  0
   20.5300   17.8480    4.1470 C   0  0  0  0  0  0  0  0  0  0  0  0
   21.0780   17.9990    5.5720 C   0  0  0  0  0  0  0  0  0  0  0  0
   22.2740   17.1360    5.9900 C   0  0  0  0  0  0  0  0  0  0  0  0
   21.9000   15.7430    6.3060 N   0  0  0  0  0  4  0  0  0  0  0  0
   15.5764   16.3790    5.5675 H   0  0  0  0  0  0  0  0  0  0  0  0
   13.3051   14.9191    5.1435 H   0  0  0  0  0  0  0  0  0  0  0  0
   13.9174   13.0505    3.3479 H   0  0  0  0  0  0  0  0  0  0  0  0
   21.3743   17.6717    3.4644 H   0  0  0  0  0  0  0  0  0  0  0  0
   19.9896   18.7748    3.9042 H   0  0  0  0  0  0  0  0  0  0  0  0
   21.3771   19.0504    5.6954 H   0  0  0  0  0  0  0  0  0  0  0  0
   20.2564   17.6509    6.2152 H   0  0  0  0  0  0  0  0  0  0  0  0
   23.0027   17.1247    5.1660 H   0  0  0  0  0  0  0  0  0  0  0  0
   22.6944   17.5787    6.9050 H   0  0  0  0  0  0  0  0  0  0  0  0
   21.8669   15.6198    7.3281 H   0  0  0  0  0  0  0  0  0  0  0  0
   20.9739   15.5368    5.9052 H   0  0  0  0  0  0  0  0  0  0  0  0
   22.5983   15.1007    5.9052 H   0  0  0  0  0  0  0  0  0  0  0  0
  2  1  1  0
  3  2  1  0
  4  3  2  0
  5  4  1  0
  5  1  2  0
  6  4  1  0
  7  6  2  0
  8  7  1  0
  9  8  2  0
 10  9  1  0
 10  6  1  0
 11  1  1  0
 12 11  1  0
 13 12  1  0
 14 13  1  0
  7 15  1  0
  8 16  1  0
  9 17  1  0
 11 18  1  0
 11 19  1  0
 12 20  1  0
 12 21  1  0
 13 22  1  0
 13 23  1  0
 14 24  1  0
 14 25  1  0
 14 26  1  0
M  CHG  1  14   1
M  END
$$$$
=
     RDKit          3D

 44 46  0  0  0  0  0  0  0  0999 V2000
   15.8740   16.5980    5.0270 N   0  0  0  0  0  4  0  0  0  0  0  0
   17.2420   16.4610    5.6560 C   0  0  0  0  0  0  0  0  0  0  0  0
   18.3360   16.0690    4.6150 C   0  0  1  0  0  0  0  0  0  0  0  0
   17.7510   15.2080    3.4910 N   0  0  0  0  0  4  0  0  0  0  0  0
   16.5280   14.4120    3.8600 C   0  0  0  0  0  0  0  0  0  0  0  0
   15.3570   15.3530    4.2880 C   0  0  1  0  0  0  0  0  0  0  0  0
   14.3140   14.6340    5.1610 C   0  0  0  0  0  0  0  0  0  0  0  0
   13.1920   14.0700    4.3330 C   0  0  0  0  0  0  0  0  0  0  0  0
   13.4290   13.0180    3.4340 C   0  0  0  0  0  0  0  0  0  0  0  0
   12.3760   12.4660    2.7040 C   0  0  0  0  0  0  0  0  0  0  0  0
   11.0830   12.9600    2.8580 C   0  0  0  0  0  0  0  0  0  0  0  0
   10.8410   14.0160    3.7330 C   0  0  0  0  0  0  0  0  0  0  0  0
   11.8900   14.5730    4.4660 C   0  0  0  0  0  0  0  0  0  0  0  0
   19.0140   17.3110    4.0050 C   0  0  0  0  0  0  0  0  0  0  0  0
   20.4010   17.5340    4.5510 C   0  0  0  0  0  0  0  0  0  0  0  0
   21.2240   18.5410    4.0230 C   0  0  0  0  0  0  0  0  0  0  0  0
   22.4860   18.7780    4.5670 C   0  0  0  0  0  0  0  0  0  0  0  0
   22.9430   18.0070    5.6330 C   0  0  0  0  0  0  0  0  0  0  0  0
   22.1460   16.9880    6.1480 C   0  0  0  0  0  0  0  0  0  0  0  0
   20.8830   16.7470    5.6090 C   0  0  0  0  0  0  0  0  0  0  0  0
   15.2025   16.8250    5.7743 H   0  0  0  0  0  0  0  0  0  0  0  0
   15.9642   17.3338    4.3119 H   0  0  0  0  0  0  0  0  0  0  0  0
   17.5183   17.4219    6.1146 H   0  0  0  0  0  0  0  0  0  0  0  0
   17.1885   15.6583    6.4062 H   0  0  0  0  0  0  0  0  0  0  0  0
   19.0933   15.4858    5.1595 H   0  0  0  0  0  0  0  0  0  0  0  0
   17.5012   15.8313    2.7100 H   0  0  0  0  0  0  0  0  0  0  0  0
   18.4782   14.5185    3.2527 H   0  0  0  0  0  0  0  0  0  0  0  0
   16.2114   13.8155    2.9917 H   0  0  0  0  0  0  0  0  0  0  0  0
   16.7785   13.7562    4.7068 H   0  0  0  0  0  0  0  0  0  0  0  0
   14.8653   15.6662    3.3552 H   0  0  0  0  0  0  0  0  0  0  0  0
   14.8065   13.8123    5.7016 H   0  0  0  0  0  0  0  0  0  0  0  0
   13.8888   15.3669    5.8624 H   0  0  0  0  0  0  0  0  0  0  0  0
   14.4491   12.6274    3.3047 H   0  0  0  0  0  0  0  0  0  0  0  0
   12.5675   11.6385    2.0050 H   0  0  0  0  0  0  0  0  0  0  0  0
   10.2531   12.5161    2.2886 H   0  0  0  0  0  0  0  0  0  0  0  0
    9.8210   14.4119    3.8467 H   0  0  0  0  0  0  0  0  0  0  0  0
   11.6943   15.4108    5.1515 H   0  0  0  0  0  0  0  0  0  0  0  0
   19.0804   17.1779    2.9151 H   0  0  0  0  0  0  0  0  0  0  0  0
   18.4049   18.1887    4.2671 H   0  0  0  0  0  0  0  0  0  0  0  0
   20.8715   19.1467    3.1752 H   0  0  0  0  0  0  0  0  0  0  0  0
   23.1214   19.5751    4.1535 H   0  0  0  0  0  0  0  0  0  0  0  0
   23.9340   18.2031    6.0683 H   0  0  0  0  0  0  0  0  0  0  0  0
   22.5136   16.3719    6.9818 H   0  0  0  0  0  0  0  0  0  0  0  0
   20.2608   15.9358    6.0149 H   0  0  0  0  0  0  0  0  0  0  0  0
  2  1  1  0
  3  2  1  0
  4  3  1  0
  5  4  1  0
  6  1  1  0
  6  5  1  0
  7  6  1  0
  8  7  1  0
  9  8  2  0
 10  9  1  0
 11 10  2  0
 12 11  1  0
 13 12  2  0
 13  8  1  0
 14  3  1  0
 15 14  1  0
 16 15  2  0
 17 16  1  0
 18 17  2  0
 19 18  1  0
 20 15  1  0
 20 19  2  0
  1 21  1  0
  1 22  1  0
  2 23  1  0
  2 24  1  0
  3 25  1  1
  4 26  1  0
  4 27  1  0
  5 28  1  0
  5 29  1  0
  6 30  1  6
  7 31  1  0
  7 32  1  0
  9 33  1  0
 10 34  1  0
 11 35  1  0
 12 36  1  0
 13 37  1  0
 14 38  1  0
 14 39  1  0
 16 40  1  0
 17 41  1  0
 18 42  1  0
 19 43  1  0
 20 44  1  0
M  CHG  2   1   1   4   1
M  END
$$$$
=
     RDKit          3D

 45 45  0  0  0  0  0  0  0  0999 V2000
   18.9420   17.0360    5.6700 N   0  0  2  0  0  4  0  0  0  0  0  0
   19.5690   18.3690    5.2470 C   0  0  0  0  0  0  0  0  0  0  0  0
   21.1130   18.3300    5.3600 C   0  0  0  0  0  0  0  0  0  0  0  0
   21.6870   17.1260    4.6550 N   0  0  0  0  0  4  0  0  0  0  0  0
   21.1020   15.8110    5.1090 C   0  0  0  0  0  0  0  0  0  0  0  0
   19.5460   15.7890    4.9760 C   0  0  2  0  0  0  0  0  0  0  0  0
   19.1150   15.6950    3.5160 C   0  0  0  0  0  0  0  0  0  0  0  0
   17.4080   17.0470    5.7590 C   0  0  0  0  0  0  0  0  0  0  0  0
   16.8280   15.8810    6.5590 C   0  0  0  0  0  0  0  0  0  0  0  0
   15.5140   15.3570    5.9670 C   0  0  0  0  0  0  0  0  0  0  0  0
   15.2400   15.8740    4.5510 C   0  0  0  0  0  0  0  0  0  0  0  0
   15.4760   14.8190    3.4660 C   0  0  0  0  0  0  0  0  0  0  0  0
   14.5230   13.6260    3.5610 C   0  0  0  0  0  0  0  0  0  0  0  0
   16.6760   12.5690    2.7870 C   0  0  0  0  0  0  0  0  0  0  0  0
   15.2270   12.3240    3.1780 C   0  0  0  0  0  0  0  0  0  0  0  0
   19.2359   16.9296    6.6514 H   0  0  0  0  0  0  0  0  0  0  0  0
   19.2920   18.5793    4.2034 H   0  0  0  0  0  0  0  0  0  0  0  0
   19.1932   19.1558    5.9176 H   0  0  0  0  0  0  0  0  0  0  0  0
   21.5281   19.2420    4.9061 H   0  0  0  0  0  0  0  0  0  0  0  0
   21.3804   18.2672    6.4252 H   0  0  0  0  0  0  0  0  0  0  0  0
   21.5105   17.2274    3.6453 H   0  0  0  0  0  0  0  0  0  0  0  0
   22.6914   17.0991    4.8818 H   0  0  0  0  0  0  0  0  0  0  0  0
   21.5231   15.0028    4.4929 H   0  0  0  0  0  0  0  0  0  0  0  0
   21.3554   15.6735    6.1705 H   0  0  0  0  0  0  0  0  0  0  0  0
   19.1614   14.8900    5.4798 H   0  0  0  0  0  0  0  0  0  0  0  0
   18.0414   15.4609    3.4650 H   0  0  0  0  0  0  0  0  0  0  0  0
   19.3050   16.6557    3.0150 H   0  0  0  0  0  0  0  0  0  0  0  0
   19.6878   14.9007    3.0150 H   0  0  0  0  0  0  0  0  0  0  0  0
   17.0952   17.9862    6.2386 H   0  0  0  0  0  0  0  0  0  0  0  0
   17.0269   16.9515    4.7316 H   0  0  0  0  0  0  0  0  0  0  0  0
   17.5615   15.0613    6.5696 H   0  0  0  0  0  0  0  0  0  0  0  0
   16.6143   16.2465    7.5742 H   0  0  0  0  0  0  0  0  0  0  0  0
   15.5587   14.2584    5.9353 H   0  0  0  0  0  0  0  0  0  0  0  0
   14.6987   15.7196    6.6103 H   0  0  0  0  0  0  0  0  0  0  0  0
   14.1919   16.2033    4.4960 H   0  0  0  0  0  0  0  0  0  0  0  0
   15.9433   16.6986    4.3629 H   0  0  0  0  0  0  0  0  0  0  0  0
   15.3429   15.2941    2.4829 H   0  0  0  0  0  0  0  0  0  0  0  0
   16.4960   14.4317    3.6060 H   0  0  0  0  0  0  0  0  0  0  0  0
   14.1532   13.5436    4.5937 H   0  0  0  0  0  0  0  0  0  0  0  0
   13.6893   13.7897    2.8623 H   0  0  0  0  0  0  0  0  0  0  0  0
   17.2883   12.6725    3.6949 H   0  0  0  0  0  0  0  0  0  0  0  0
   17.0437   11.7203    2.1916 H   0  0  0  0  0  0  0  0  0  0  0  0
   16.7442   13.4914    2.1916 H   0  0  0  0  0  0  0  0  0  0  0  0
   15.1996   11.6368    4.0365 H   0  0  0  0  0  0  0  0  0  0  0  0
   14.7043   11.8902    2.3128 H   0  0  0  0  0  0  0  0  0  0  0  0
  2  1  1  0
  3  2  1  0
  4  3  1  0
  5  4  1  0
  6  5  1  0
  6  1  1  0
  7  6  1  0
  8  1  1  0
  9  8  1  0
 10  9  1  0
 11 10  1  0
 12 11  1  0
 13 12  1  0
 15 13  1  0
 15 14  1  0
  1 16  1  1
  2 17  1  0
  2 18  1  0
  3 19  1  0
  3 20  1  0
  4 21  1  0
  4 22  1  0
  5 23  1  0
  5 24  1  0
  6 25  1  1
  7 26  1  0
  7 27  1  0
  7 28  1  0
  8 29  1  0
  8 30  1  0
  9 31  1  0
  9 32  1  0
 10 33  1  0
 10 34  1  0
 11 35  1  0
 11 36  1  0
 12 37  1  0
 12 38  1  0
 13 39  1  0
 13 40  1  0
 14 41  1  0
 14 42  1  0
 14 43  1  0
 15 44  1  0
 15 45  1  0
M  CHG  2   1   1   4   1
M  END
$$$$
=
     RDKit          3D

 34 34  0  0  0  0  0  0  0  0999 V2000
   17.4300   15.5240    3.9050 C   0  0  2  0  0  0  0  0  0  0  0  0
   17.1090   15.8290    5.3710 C   0  0  0  0  0  0  0  0  0  0  0  0
   15.6950   15.4010    5.7860 C   0  0  0  0  0  0  0  0  0  0  0  0
   14.7500   15.3100    4.5940 C   0  0  0  0  0  0  0  0  0  0  0  0
   15.2420   14.3280    3.5340 C   0  0  0  0  0  0  0  0  0  0  0  0
   16.7310   14.2460    3.5290 N   0  0  0  0  0  4  0  0  0  0  0  0
   18.9450   15.4000    3.6460 C   0  0  0  0  0  0  0  0  0  0  0  0
   19.6000   17.0060    3.0540 S   0  0  0  0  0  0  0  0  0  0  0  0
   21.1550   16.3220    5.2620 C   0  0  0  0  0  0  0  0  0  0  0  0
   20.6610   17.5440    4.4800 C   0  0  0  0  0  0  0  0  0  0  0  0
   21.8430   18.3940    4.0010 C   0  0  0  0  0  0  0  0  0  0  0  0
   19.7610   18.3970    5.3890 C   0  0  0  0  0  0  0  0  0  0  0  0
   17.0765   16.3621    3.2864 H   0  0  0  0  0  0  0  0  0  0  0  0
   17.8344   15.2978    6.0048 H   0  0  0  0  0  0  0  0  0  0  0  0
   17.1685   16.9202    5.4967 H   0  0  0  0  0  0  0  0  0  0  0  0
   15.7508   14.4150    6.2703 H   0  0  0  0  0  0  0  0  0  0  0  0
   15.2993   16.1623    6.4744 H   0  0  0  0  0  0  0  0  0  0  0  0
   13.7630   14.9799    4.9502 H   0  0  0  0  0  0  0  0  0  0  0  0
   14.6990   16.3061    4.1300 H   0  0  0  0  0  0  0  0  0  0  0  0
   14.8279   13.3315    3.7474 H   0  0  0  0  0  0  0  0  0  0  0  0
   14.9080   14.6819    2.5475 H   0  0  0  0  0  0  0  0  0  0  0  0
   17.0148   13.5159    4.1978 H   0  0  0  0  0  0  0  0  0  0  0  0
   17.0085   14.0359    2.5596 H   0  0  0  0  0  0  0  0  0  0  0  0
   19.4543   15.1185    4.5795 H   0  0  0  0  0  0  0  0  0  0  0  0
   19.1235   14.6285    2.8825 H   0  0  0  0  0  0  0  0  0  0  0  0
   21.0749   16.5202    6.3410 H   0  0  0  0  0  0  0  0  0  0  0  0
   20.5397   15.4477    5.0031 H   0  0  0  0  0  0  0  0  0  0  0  0
   22.2050   16.1210    5.0031 H   0  0  0  0  0  0  0  0  0  0  0  0
   22.3889   18.7866    4.8716 H   0  0  0  0  0  0  0  0  0  0  0  0
   22.5186   17.7736    3.3938 H   0  0  0  0  0  0  0  0  0  0  0  0
   21.4698   19.2319    3.3938 H   0  0  0  0  0  0  0  0  0  0  0  0
   19.9914   18.1786    6.4422 H   0  0  0  0  0  0  0  0  0  0  0  0
   19.9417   19.4632    5.1876 H   0  0  0  0  0  0  0  0  0  0  0  0
   18.7060   18.1594    5.1876 H   0  0  0  0  0  0  0  0  0  0  0  0
  2  1  1  0
  3  2  1  0
  4  3  1  0
  5  4  1  0
  6  5  1  0
  6  1  1  0
  7  1  1  0
  8  7  1  0
 10  9  1  0
 10  8  1  0
 11 10  1  0
 12 10  1  0
  1 13  1  6
  2 14  1  0
  2 15  1  0
  3 16  1  0
  3 17  1  0
  4 18  1  0
  4 19  1  0
  5 20  1  0
  5 21  1  0
  6 22  1  0
  6 23  1  0
  7 24  1  0
  7 25  1  0
  9 26  1  0
  9 27  1  0
  9 28  1  0
 11 29  1  0
 11 30  1  0
 11 31  1  0
 12 32  1  0
 12 33  1  0
 12 34  1  0
M  CHG  1   6   1
M  END
$$$$
=
     RDKit          3D

 29 30  0  0  0  0  0  0  0  0999 V2000
   22.1910   18.7130    4.6530 C   0  0  0  0  0  0  0  0  0  0  0  0
   21.5100   18.2200    3.3730 C   0  0  0  0  0  0  0  0  0  0  0  0
   20.0210   17.9320    3.5330 C   0  0  0  0  0  0  0  0  0  0  0  0
   19.7590   17.0330    4.6050 O   0  0  0  0  0  0  0  0  0  0  0  0
   20.2720   15.7160    4.4110 C   0  0  1  0  0  0  0  0  0  0  0  0
   21.3660   15.3850    5.4410 C   0  0  1  0  0  0  0  0  0  0  0  0
   22.4450   16.4110    5.6140 N   0  0  0  0  0  4  0  0  0  0  0  0
   22.0610   17.8330    5.8960 C   0  0  0  0  0  0  0  0  0  0  0  0
   20.6300   15.1010    6.7520 C   0  0  0  0  0  0  0  0  0  0  0  0
   19.2030   14.7300    6.3430 C   0  0  0  0  0  0  0  0  0  0  0  0
   19.1840   14.7220    4.8140 C   0  0  0  0  0  0  0  0  0  0  0  0
   23.2638   18.8230    4.4360 H   0  0  0  0  0  0  0  0  0  0  0  0
   21.6695   19.6467    4.9104 H   0  0  0  0  0  0  0  0  0  0  0  0
   21.6317   18.9908    2.5977 H   0  0  0  0  0  0  0  0  0  0  0  0
   21.9907   17.2680    3.1036 H   0  0  0  0  0  0  0  0  0  0  0  0
   19.4961   18.8788    3.7284 H   0  0  0  0  0  0  0  0  0  0  0  0
   19.6664   17.4618    2.6039 H   0  0  0  0  0  0  0  0  0  0  0  0
   20.6232   15.6601    3.3701 H   0  0  0  0  0  0  0  0  0  0  0  0
   21.9381   14.5200    5.0742 H   0  0  0  0  0  0  0  0  0  0  0  0
   23.0362   16.0975    6.3971 H   0  0  0  0  0  0  0  0  0  0  0  0
   22.8922   16.4562    4.6873 H   0  0  0  0  0  0  0  0  0  0  0  0
   22.7184   18.2299    6.6836 H   0  0  0  0  0  0  0  0  0  0  0  0
   21.0086   17.8461    6.2158 H   0  0  0  0  0  0  0  0  0  0  0  0
   21.1062   14.2668    7.2881 H   0  0  0  0  0  0  0  0  0  0  0  0
   20.6499   15.9677    7.4290 H   0  0  0  0  0  0  0  0  0  0  0  0
   18.9415   13.7351    6.7325 H   0  0  0  0  0  0  0  0  0  0  0  0
   18.4719   15.4449    6.7485 H   0  0  0  0  0  0  0  0  0  0  0  0
   18.2029   15.0454    4.4359 H   0  0  0  0  0  0  0  0  0  0  0  0
   19.3608   13.7186    4.3994 H   0  0  0  0  0  0  0  0  0  0  0  0
  2  1  1  0
  3  2  1  0
  4  3  1  0
  5  4  1  0
  6  5  1  0
  7  6  1  0
  8  1  1  0
  8  7  1  0
  9  6  1  0
 10  9  1  0
 11  5  1  0
 11 10  1  0
  1 12  1  0
  1 13  1  0
  2 14  1  0
  2 15  1  0
  3 16  1  0
  3 17  1  0
  5 18  1  6
  6 19  1  6
  7 20  1  0
  7 21  1  0
  8 22  1  0
  8 23  1  0
  9 24  1  0
  9 25  1  0
 10 26  1  0
 10 27  1  0
 11 28  1  0
 11 29  1  0
M  CHG  1   7   1
M  END
$$$$
=
     RDKit          3D

 46 47  0  0  0  0  0  0  0  0999 V2000
   17.5940   15.4230    5.2020 N   0  0  2  0  0  4  0  0  0  0  0  0
   16.8500   15.9230    6.4300 C   0  0  0  0  0  0  0  0  0  0  0  0
   22.5430   17.7600    4.7250 C   0  0  0  0  0  0  0  0  0  0  0  0
   21.3370   17.6640    5.6480 N   0  0  0  0  0  4  0  0  0  0  0  0
   21.0970   16.2730    6.1670 C   0  0  0  0  0  0  0  0  0  0  0  0
   20.1610   15.4840    5.2510 C   0  0  0  0  0  0  0  0  0  0  0  0
   18.8830   16.2530    4.8690 C   0  0  0  0  0  0  0  0  0  0  0  0
   18.8400   17.6700    5.4450 C   0  0  0  0  0  0  0  0  0  0  0  0
   20.1380   18.4040    5.1050 C   0  0  0  0  0  0  0  0  0  0  0  0
   16.6530   15.2680    3.9690 C   0  0  0  0  0  0  0  0  0  0  0  0
   15.3490   14.4250    4.2280 C   0  0  2  0  0  0  0  0  0  0  0  0
   15.2440   13.3120    3.1750 C   0  0  0  0  0  0  0  0  0  0  0  0
   13.9890   12.4620    3.3520 C   0  0  0  0  0  0  0  0  0  0  0  0
   12.7320   13.3230    3.3590 C   0  0  0  0  0  0  0  0  0  0  0  0
   12.8200   14.4200    4.4040 C   0  0  0  0  0  0  0  0  0  0  0  0
   14.0750   15.2420    4.1630 N   0  0  0  0  0  4  0  0  0  0  0  0
   17.9312   14.4806    5.4450 H   0  0  0  0  0  0  0  0  0  0  0  0
   17.3658   15.5764    7.3376 H   0  0  0  0  0  0  0  0  0  0  0  0
   16.8239   17.0226    6.4204 H   0  0  0  0  0  0  0  0  0  0  0  0
   15.8220   15.5318    6.4204 H   0  0  0  0  0  0  0  0  0  0  0  0
   23.4607   17.8330    5.3271 H   0  0  0  0  0  0  0  0  0  0  0  0
   22.5913   16.8629    4.0903 H   0  0  0  0  0  0  0  0  0  0  0  0
   22.4488   18.6535    4.0903 H   0  0  0  0  0  0  0  0  0  0  0  0
   21.5608   18.1804    6.5107 H   0  0  0  0  0  0  0  0  0  0  0  0
   22.0600   15.7456    6.2330 H   0  0  0  0  0  0  0  0  0  0  0  0
   20.6236   16.3521    7.1568 H   0  0  0  0  0  0  0  0  0  0  0  0
   20.7057   15.2341    4.3286 H   0  0  0  0  0  0  0  0  0  0  0  0
   19.8457   14.5877    5.8053 H   0  0  0  0  0  0  0  0  0  0  0  0
   18.9087   16.3867    3.7775 H   0  0  0  0  0  0  0  0  0  0  0  0
   17.9878   18.2148    5.0126 H   0  0  0  0  0  0  0  0  0  0  0  0
   18.7276   17.6158    6.5379 H   0  0  0  0  0  0  0  0  0  0  0  0
   20.2299   18.4845    4.0118 H   0  0  0  0  0  0  0  0  0  0  0  0
   20.1058   19.4032    5.5639 H   0  0  0  0  0  0  0  0  0  0  0  0
   16.3497   16.2738    3.6428 H   0  0  0  0  0  0  0  0  0  0  0  0
   17.2289   14.7175    3.2105 H   0  0  0  0  0  0  0  0  0  0  0  0
   15.4416   14.0249    5.2485 H   0  0  0  0  0  0  0  0  0  0  0  0
   15.2216   13.7716    2.1759 H   0  0  0  0  0  0  0  0  0  0  0  0
   16.1161   12.6525    3.2951 H   0  0  0  0  0  0  0  0  0  0  0  0
   13.9248   11.7414    2.5234 H   0  0  0  0  0  0  0  0  0  0  0  0
   14.0571   11.9403    4.3180 H   0  0  0  0  0  0  0  0  0  0  0  0
   12.6068   13.7822    2.3673 H   0  0  0  0  0  0  0  0  0  0  0  0
   11.8728   12.6805    3.6020 H   0  0  0  0  0  0  0  0  0  0  0  0
   11.9353   15.0696    4.3306 H   0  0  0  0  0  0  0  0  0  0  0  0
   12.8599   13.9713    5.4075 H   0  0  0  0  0  0  0  0  0  0  0  0
   14.0098   15.6719    3.2293 H   0  0  0  0  0  0  0  0  0  0  0  0
   14.1263   15.9467    4.9124 H   0  0  0  0  0  0  0  0  0  0  0  0
  2  1  1  0
  4  3  1  0
  5  4  1  0
  6  5  1  0
  7  6  1  0
  7  1  1  0
  8  7  1  0
  9  8  1  0
  9  4  1  0
 10  1  1  0
 11 10  1  0
 12 11  1  0
 13 12  1  0
 14 13  1  0
 15 14  1  0
 16 15  1  0
 16 11  1  0
  1 17  1  1
  2 18  1  0
  2 19  1  0
  2 20  1  0
  3 21  1  0
  3 22  1  0
  3 23  1  0
  4 24  1  0
  5 25  1  0
  5 26  1  0
  6 27  1  0
  6 28  1  0
  7 29  1  0
  8 30  1  0
  8 31  1  0
  9 32  1  0
  9 33  1  0
 10 34  1  0
 10 35  1  0
 11 36  1  1
 12 37  1  0
 12 38  1  0
 13 39  1  0
 13 40  1  0
 14 41  1  0
 14 42  1  0
 15 43  1  0
 15 44  1  0
 16 45  1  0
 16 46  1  0
M  CHG  3   1   1   4   1  16   1
M  END
$$$$
=
     RDKit          3D

 32 33  0  0  0  0  0  0  0  0999 V2000
   18.6470   14.3840    3.5780 C   0  0  0  0  0  0  0  0  0  0  0  0
   19.3700   15.4060    4.2950 N   0  0  0  0  0  0  0  0  0  0  0  0
   19.8410   15.2680    5.5640 C   0  0  0  0  0  0  0  0  0  0  0  0
   19.7670   14.2880    6.2870 O   0  0  0  0  0  0  0  0  0  0  0  0
   20.4500   16.4460    5.9330 N   0  0  0  0  0  0  0  0  0  0  0  0
   20.3360   17.4670    4.9170 C   0  0  0  0  0  0  0  0  0  0  0  0
   19.6310   16.6590    3.8140 C   0  0  0  0  0  0  0  0  0  0  0  0
   19.3480   17.0850    2.7020 O   0  0  0  0  0  0  0  0  0  0  0  0
   19.4430   18.6090    5.3840 C   0  0  0  0  0  0  0  0  0  0  0  0
   21.7030   17.9440    4.4520 C   0  0  0  0  0  0  0  0  0  0  0  0
   14.3690   14.7630    4.1550 C   0  0  0  0  0  0  0  0  0  0  0  0
   15.2520   15.6580    4.7630 C   0  0  0  0  0  0  0  0  0  0  0  0
   16.6320   15.5520    4.5610 C   0  0  0  0  0  0  0  0  0  0  0  0
   17.1560   14.5210    3.7720 C   0  0  0  0  0  0  0  0  0  0  0  0
   16.2760   13.5820    3.2210 C   0  0  0  0  0  0  0  0  0  0  0  0
   14.8970   13.6950    3.4280 C   0  0  0  0  0  0  0  0  0  0  0  0
   13.0030   14.8050    4.4570 N   0  0  0  0  0  0  0  0  0  0  0  0
   18.8772   14.4690    2.5057 H   0  0  0  0  0  0  0  0  0  0  0  0
   18.9570   13.4036    3.9688 H   0  0  0  0  0  0  0  0  0  0  0  0
   20.9327   16.5841    6.8323 H   0  0  0  0  0  0  0  0  0  0  0  0
   19.4239   18.6334    6.4836 H   0  0  0  0  0  0  0  0  0  0  0  0
   19.8376   19.5624    5.0029 H   0  0  0  0  0  0  0  0  0  0  0  0
   18.4226   18.4559    5.0029 H   0  0  0  0  0  0  0  0  0  0  0  0
   22.3320   18.1635    5.3273 H   0  0  0  0  0  0  0  0  0  0  0  0
   22.1788   17.1588    3.8462 H   0  0  0  0  0  0  0  0  0  0  0  0
   21.5870   18.8548    3.8462 H   0  0  0  0  0  0  0  0  0  0  0  0
   14.8573   16.4562    5.4088 H   0  0  0  0  0  0  0  0  0  0  0  0
   17.3100   16.2834    5.0251 H   0  0  0  0  0  0  0  0  0  0  0  0
   16.6716   12.7493    2.6209 H   0  0  0  0  0  0  0  0  0  0  0  0
   14.2209   12.9331    3.0129 H   0  0  0  0  0  0  0  0  0  0  0  0
   12.3553   14.1430    4.0062 H   0  0  0  0  0  0  0  0  0  0  0  0
   12.6454   15.4979    5.1300 H   0  0  0  0  0  0  0  0  0  0  0  0
  2  1  1  0
  3  2  1  0
  4  3  2  0
  5  3  1  0
  6  5  1  0
  7  2  1  0
  7  6  1  0
  8  7  2  0
  9  6  1  0
 10  6  1  0
 12 11  2  0
 13 12  1  0
 14 13  2  0
 14  1  1  0
 15 14  1  0
 16 15  2  0
 16 11  1  0
 17 11  1  0
  1 18  1  0
  1 19  1  0
  5 20  1  0
  9 21  1  0
  9 22  1  0
  9 23  1  0
 10 24  1  0
 10 25  1  0
 10 26  1  0
 12 27  1  0
 13 28  1  0
 15 29  1  0
 16 30  1  0
 17 31  1  0
 17 32  1  0
M  END
$$$$
=
     RDKit          3D

 34 34  0  0  0  0  0  0  0  0999 V2000
   19.5510   15.5940    4.5350 C   0  0  0  0  0  0  0  0  0  0  0  0
   19.5790   14.5880    5.2390 O   0  0  0  0  0  0  0  0  0  0  0  0
   20.6180   16.4890    4.5230 N   0  0  0  0  0  0  0  0  0  0  0  0
   21.8530   16.1110    5.2200 C   0  0  0  0  0  0  0  0  0  0  0  0
   22.3890   17.2460    6.1050 C   0  0  0  0  0  0  0  0  0  0  0  0
   22.0170   18.6040    5.5540 N   0  0  0  0  0  4  0  0  0  0  0  0
   21.8430   18.6230    4.0610 C   0  0  0  0  0  0  0  0  0  0  0  0
   20.6820   17.6860    3.6750 C   0  0  0  0  0  0  0  0  0  0  0  0
   18.3500   15.9460    3.6650 C   0  0  0  0  0  0  0  0  0  0  0  0
   17.1100   15.1280    4.0380 C   0  0  0  0  0  0  0  0  0  0  0  0
   16.3100   15.7220    6.3860 C   0  0  0  0  0  0  0  0  0  0  0  0
   16.0610   15.8720    4.8850 C   0  0  0  0  0  0  0  0  0  0  0  0
   14.6310   15.4580    4.5370 C   0  0  0  0  0  0  0  0  0  0  0  0
   21.6490   15.2345    5.8526 H   0  0  0  0  0  0  0  0  0  0  0  0
   22.6153   15.8864    4.4595 H   0  0  0  0  0  0  0  0  0  0  0  0
   21.9651   17.1420    7.1147 H   0  0  0  0  0  0  0  0  0  0  0  0
   23.4863   17.1737    6.1305 H   0  0  0  0  0  0  0  0  0  0  0  0
   21.1312   18.8997    5.9885 H   0  0  0  0  0  0  0  0  0  0  0  0
   22.7950   19.2419    5.7747 H   0  0  0  0  0  0  0  0  0  0  0  0
   21.6152   19.6470    3.7300 H   0  0  0  0  0  0  0  0  0  0  0  0
   22.7699   18.2826    3.5762 H   0  0  0  0  0  0  0  0  0  0  0  0
   20.8161   17.3707    2.6297 H   0  0  0  0  0  0  0  0  0  0  0  0
   19.7436   18.2432    3.8129 H   0  0  0  0  0  0  0  0  0  0  0  0
   18.1214   17.0146    3.7912 H   0  0  0  0  0  0  0  0  0  0  0  0
   18.6078   15.7141    2.6211 H   0  0  0  0  0  0  0  0  0  0  0  0
   16.6251   14.8019    3.1061 H   0  0  0  0  0  0  0  0  0  0  0  0
   17.4704   14.2967    4.6617 H   0  0  0  0  0  0  0  0  0  0  0  0
   15.4976   16.2114    6.9432 H   0  0  0  0  0  0  0  0  0  0  0  0
   16.3423   14.6540    6.6474 H   0  0  0  0  0  0  0  0  0  0  0  0
   17.2692   16.1927    6.6474 H   0  0  0  0  0  0  0  0  0  0  0  0
   16.1750   16.9360    4.6301 H   0  0  0  0  0  0  0  0  0  0  0  0
   14.0613   15.2931    5.4634 H   0  0  0  0  0  0  0  0  0  0  0  0
   14.1517   16.2543    3.9486 H   0  0  0  0  0  0  0  0  0  0  0  0
   14.6512   14.5288    3.9486 H   0  0  0  0  0  0  0  0  0  0  0  0
  2  1  2  0
  3  1  1  0
  4  3  1  0
  5  4  1  0
  6  5  1  0
  7  6  1  0
  8  3  1  0
  8  7  1  0
  9  1  1  0
 10  9  1  0
 12 11  1  0
 12 10  1  0
 13 12  1  0
  4 14  1  0
  4 15  1  0
  5 16  1  0
  5 17  1  0
  6 18  1  0
  6 19  1  0
  7 20  1  0
  7 21  1  0
  8 22  1  0
  8 23  1  0
  9 24  1  0
  9 25  1  0
 10 26  1  0
 10 27  1  0
 11 28  1  0
 11 29  1  0
 11 30  1  0
 12 31  1  0
 13 32  1  0
 13 33  1  0
 13 34  1  0
M  CHG  1   6   1
M  END
$$$$
=
     RDKit          3D

 56 58  0  0  0  0  0  0  0  0999 V2000
    8.1440   12.3830    3.5800 C   0  0  0  0  0  0  0  0  0  0  0  0
    7.7160   12.7450    4.8600 C   0  0  0  0  0  0  0  0  0  0  0  0
    6.3600   12.7070    5.1970 C   0  0  0  0  0  0  0  0  0  0  0  0
    5.4280   12.3990    4.2060 C   0  0  0  0  0  0  0  0  0  0  0  0
    5.8430   12.0450    2.9190 C   0  0  0  0  0  0  0  0  0  0  0  0
    7.2020   12.0360    2.5810 C   0  0  0  0  0  0  0  0  0  0  0  0
    7.6590   11.7060    1.2850 N   0  0  0  0  0  0  0  0  0  0  0  0
    7.0600   10.5090    0.6820 C   0  0  0  0  0  0  0  0  0  0  0  0
    7.9270   10.0450   -0.4870 C   0  0  0  0  0  0  0  0  0  0  0  0
    8.1560   11.1670   -1.4960 C   0  0  0  0  0  0  0  0  0  0  0  0
    8.7040   12.4190   -0.8110 C   0  0  0  0  0  0  0  0  0  0  0  0
    7.8450   12.8690    0.3840 C   0  0  1  0  0  0  0  0  0  0  0  0
    6.5280   13.4990   -0.0780 C   0  0  0  0  0  0  0  0  0  0  0  0
   10.4690   13.2820    3.2300 C   0  0  0  0  0  0  0  0  0  0  0  0
   10.3130   14.4540    3.5650 O   0  0  0  0  0  0  0  0  0  0  0  0
    9.5010   12.3040    3.2040 N   0  0  0  0  0  0  0  0  0  0  0  0
   11.8490   12.7830    2.7770 C   0  0  0  0  0  0  0  0  0  0  0  0
   12.8050   12.5390    3.8000 O   0  0  0  0  0  0  0  0  0  0  0  0
   16.3320   14.7750    3.8470 C   0  0  0  0  0  0  0  0  0  0  0  0
   15.2220   15.2500    4.5570 C   0  0  0  0  0  0  0  0  0  0  0  0
   14.0160   14.5420    4.5540 C   0  0  0  0  0  0  0  0  0  0  0  0
   13.9070   13.3480    3.8440 C   0  0  0  0  0  0  0  0  0  0  0  0
   15.0150   12.8660    3.1440 C   0  0  0  0  0  0  0  0  0  0  0  0
   16.2190   13.5730    3.1410 C   0  0  0  0  0  0  0  0  0  0  0  0
   18.8300   14.5770    3.8580 C   0  0  0  0  0  0  0  0  0  0  0  0
   17.6400   15.5240    3.8780 C   0  0  0  0  0  0  0  0  0  0  0  0
    5.9290   13.1820    6.4430 N   0  0  0  0  0  0  0  0  0  0  0  0
    8.4543   13.0634    5.6107 H   0  0  0  0  0  0  0  0  0  0  0  0
    4.3538   12.4351    4.4400 H   0  0  0  0  0  0  0  0  0  0  0  0
    5.0931   11.7702    2.1626 H   0  0  0  0  0  0  0  0  0  0  0  0
    6.9996    9.7093    1.4349 H   0  0  0  0  0  0  0  0  0  0  0  0
    6.0487   10.7456    0.3196 H   0  0  0  0  0  0  0  0  0  0  0  0
    8.9001    9.7098   -0.0988 H   0  0  0  0  0  0  0  0  0  0  0  0
    7.4042    9.2234   -0.9985 H   0  0  0  0  0  0  0  0  0  0  0  0
    8.8772   10.8271   -2.2538 H   0  0  0  0  0  0  0  0  0  0  0  0
    7.1929   11.4179   -1.9644 H   0  0  0  0  0  0  0  0  0  0  0  0
    9.7218   12.2063   -0.4520 H   0  0  0  0  0  0  0  0  0  0  0  0
    8.6943   13.2327   -1.5511 H   0  0  0  0  0  0  0  0  0  0  0  0
    8.3559   13.6643    0.9466 H   0  0  0  0  0  0  0  0  0  0  0  0
    5.9304   13.7849    0.8001 H   0  0  0  0  0  0  0  0  0  0  0  0
    6.7413   14.3926   -0.6830 H   0  0  0  0  0  0  0  0  0  0  0  0
    5.9662   12.7721   -0.6830 H   0  0  0  0  0  0  0  0  0  0  0  0
    9.8117   11.3837    2.8613 H   0  0  0  0  0  0  0  0  0  0  0  0
   11.6997   11.8414    2.2283 H   0  0  0  0  0  0  0  0  0  0  0  0
   12.2704   13.6021    2.1757 H   0  0  0  0  0  0  0  0  0  0  0  0
   15.2997   16.1900    5.1230 H   0  0  0  0  0  0  0  0  0  0  0  0
   13.1514   14.9286    5.1135 H   0  0  0  0  0  0  0  0  0  0  0  0
   14.9384   11.9193    2.5891 H   0  0  0  0  0  0  0  0  0  0  0  0
   17.0819   13.1831    2.5812 H   0  0  0  0  0  0  0  0  0  0  0  0
   19.1275   14.3402    4.8902 H   0  0  0  0  0  0  0  0  0  0  0  0
   18.5523   13.6502    3.3347 H   0  0  0  0  0  0  0  0  0  0  0  0
   19.6708   15.0557    3.3347 H   0  0  0  0  0  0  0  0  0  0  0  0
   17.6942   16.1835    2.9993 H   0  0  0  0  0  0  0  0  0  0  0  0
   17.6802   16.1063    4.8104 H   0  0  0  0  0  0  0  0  0  0  0  0
    4.9289   13.1523    6.6876 H   0  0  0  0  0  0  0  0  0  0  0  0
    6.6123   13.5608    7.1142 H   0  0  0  0  0  0  0  0  0  0  0  0
  2  1  2  0
  3  2  1  0
  4  3  2  0
  5  4  1  0
  6  5  2  0
  6  1  1  0
  7  6  1  0
  8  7  1  0
  9  8  1  0
 10  9  1  0
 11 10  1  0
 12 11  1  0
 12  7  1  0
 13 12  1  0
 15 14  2  0
 16 14  1  0
 16  1  1  0
 17 14  1  0
 18 17  1  0
 20 19  2  0
 21 20  1  0
 22 21  2  0
 22 18  1  0
 23 22  1  0
 24 23  2  0
 24 19  1  0
 26 19  1  0
 26 25  1  0
 27  3  1  0
  2 28  1  0
  4 29  1  0
  5 30  1  0
  8 31  1  0
  8 32  1  0
  9 33  1  0
  9 34  1  0
 10 35  1  0
 10 36  1  0
 11 37  1  0
 11 38  1  0
 12 39  1  1
 13 40  1  0
 13 41  1  0
 13 42  1  0
 16 43  1  0
 17 44  1  0
 17 45  1  0
 20 46  1  0
 21 47  1  0
 23 48  1  0
 24 49  1  0
 25 50  1  0
 25 51  1  0
 25 52  1  0
 26 53  1  0
 26 54  1  0
 27 55  1  0
 27 56  1  0
M  END
$$$$
=
     RDKit          3D

 24 25  0  0  0  0  0  0  0  0999 V2000
   18.3930   14.9600    4.3020 C   0  0  0  0  0  0  0  0  0  0  0  0
   17.5710   16.1400    4.8090 C   0  0  0  0  0  0  0  0  0  0  0  0
   18.4330   17.2780    5.3560 C   0  0  0  0  0  0  0  0  0  0  0  0
   19.5450   17.7270    4.3800 C   0  0  2  0  0  0  0  0  0  0  0  0
   19.5620   16.8630    3.1050 C   0  0  0  0  0  0  0  0  0  0  0  0
   19.5590   15.4140    3.4900 N   0  0  0  0  0  4  0  0  0  0  0  0
   20.8880   17.7040    5.0570 C   0  0  0  0  0  0  0  0  0  0  0  0
   21.1460   16.7680    5.9830 N   0  0  0  0  0  0  0  0  0  0  0  0
   22.4390   17.0190    6.4120 O   0  0  0  0  0  0  0  0  0  0  0  0
   22.9350   18.0920    5.7480 C   0  0  0  0  0  0  0  0  0  0  0  0
   21.9910   18.5670    4.8730 C   0  0  0  0  0  0  0  0  0  0  0  0
   18.7605   14.3839    5.1640 H   0  0  0  0  0  0  0  0  0  0  0  0
   17.7479   14.3397    3.6624 H   0  0  0  0  0  0  0  0  0  0  0  0
   16.9650   16.5281    3.9771 H   0  0  0  0  0  0  0  0  0  0  0  0
   16.9459   15.7738    5.6368 H   0  0  0  0  0  0  0  0  0  0  0  0
   17.7821   18.1400    5.5640 H   0  0  0  0  0  0  0  0  0  0  0  0
   18.9283   16.9038    6.2641 H   0  0  0  0  0  0  0  0  0  0  0  0
   19.3245   18.7613    4.0774 H   0  0  0  0  0  0  0  0  0  0  0  0
   18.6711   17.0843    2.4990 H   0  0  0  0  0  0  0  0  0  0  0  0
   20.4656   17.0874    2.5191 H   0  0  0  0  0  0  0  0  0  0  0  0
   20.4139   15.2300    4.0343 H   0  0  0  0  0  0  0  0  0  0  0  0
   19.5045   14.8898    2.6051 H   0  0  0  0  0  0  0  0  0  0  0  0
   23.9399   18.5165    5.8891 H   0  0  0  0  0  0  0  0  0  0  0  0
   22.0740   19.4225    4.1866 H   0  0  0  0  0  0  0  0  0  0  0  0
  2  1  1  0
  3  2  1  0
  4  3  1  0
  5  4  1  0
  6  1  1  0
  6  5  1  0
  7  4  1  0
  8  7  2  0
  9  8  1  0
 10  9  1  0
 11  7  1  0
 11 10  2  0
  1 12  1  0
  1 13  1  0
  2 14  1  0
  2 15  1  0
  3 16  1  0
  3 17  1  0
  4 18  1  6
  5 19  1  0
  5 20  1  0
  6 21  1  0
  6 22  1  0
 10 23  1  0
 11 24  1  0
M  CHG  1   6   1
M  END
$$$$
=
     RDKit          3D

 33 33  0  0  0  0  0  0  0  0999 V2000
   19.4820   16.4370    2.9000 C   0  0  0  0  0  0  0  0  0  0  0  0
   18.3170   16.6390    3.8480 N   0  0  1  0  0  4  0  0  0  0  0  0
   17.5540   15.3060    3.9430 C   0  0  0  0  0  0  0  0  0  0  0  0
   16.2960   15.4910    4.7740 C   0  0  0  0  0  0  0  0  0  0  0  0
   16.6220   16.0190    6.1620 C   0  0  0  0  0  0  0  0  0  0  0  0
   17.4220   17.3130    6.0750 C   0  0  0  0  0  0  0  0  0  0  0  0
   18.6980   17.1500    5.2380 C   0  0  2  0  0  0  0  0  0  0  0  0
   19.5720   18.4390    5.2440 C   0  0  0  0  0  0  0  0  0  0  0  0
   21.0570   18.3380    5.6460 C   0  0  2  0  0  0  0  0  0  0  0  0
   22.0240   18.6620    4.5180 C   0  0  0  0  0  0  0  0  0  0  0  0
   21.3440   16.9350    6.0950 N   0  0  0  0  0  4  0  0  0  0  0  0
   20.4031   16.2773    3.4798 H   0  0  0  0  0  0  0  0  0  0  0  0
   19.2908   15.5586    2.2661 H   0  0  0  0  0  0  0  0  0  0  0  0
   19.5977   17.3285    2.2661 H   0  0  0  0  0  0  0  0  0  0  0  0
   17.7283   17.3892    3.4588 H   0  0  0  0  0  0  0  0  0  0  0  0
   17.2780   14.9704    2.9324 H   0  0  0  0  0  0  0  0  0  0  0  0
   18.1974   14.5526    4.4210 H   0  0  0  0  0  0  0  0  0  0  0  0
   15.6328   16.2062    4.2654 H   0  0  0  0  0  0  0  0  0  0  0  0
   15.8048   14.5127    4.8818 H   0  0  0  0  0  0  0  0  0  0  0  0
   15.6843   16.2106    6.7043 H   0  0  0  0  0  0  0  0  0  0  0  0
   17.2246   15.2671    6.6925 H   0  0  0  0  0  0  0  0  0  0  0  0
   16.7925   18.0884    5.6141 H   0  0  0  0  0  0  0  0  0  0  0  0
   17.7210   17.5947    7.0954 H   0  0  0  0  0  0  0  0  0  0  0  0
   19.3539   16.3927    5.6923 H   0  0  0  0  0  0  0  0  0  0  0  0
   19.5421   18.8525    4.2251 H   0  0  0  0  0  0  0  0  0  0  0  0
   19.1264   19.0540    6.0398 H   0  0  0  0  0  0  0  0  0  0  0  0
   21.2110   19.0810    6.4423 H   0  0  0  0  0  0  0  0  0  0  0  0
   22.9866   18.9845    4.9415 H   0  0  0  0  0  0  0  0  0  0  0  0
   22.1778   17.7663    3.8983 H   0  0  0  0  0  0  0  0  0  0  0  0
   21.6071   19.4695    3.8983 H   0  0  0  0  0  0  0  0  0  0  0  0
   21.3514   16.8987    7.1243 H   0  0  0  0  0  0  0  0  0  0  0  0
   20.6148   16.3032    5.7344 H   0  0  0  0  0  0  0  0  0  0  0  0
   22.2627   16.6403    5.7344 H   0  0  0  0  0  0  0  0  0  0  0  0
  2  1  1  0
  3  2  1  0
  4  3  1  0
  5  4  1  0
  6  5  1  0
  7  2  1  0
  7  6  1  0
  8  7  1  0
  9  8  1  0
 10  9  1  0
 11  9  1  0
  1 12  1  0
  1 13  1  0
  1 14  1  0
  2 15  1  6
  3 16  1  0
  3 17  1  0
  4 18  1  0
  4 19  1  0
  5 20  1  0
  5 21  1  0
  6 22  1  0
  6 23  1  0
  7 24  1  1
  8 25  1  0
  8 26  1  0
  9 27  1  1
 10 28  1  0
 10 29  1  0
 10 30  1  0
 11 31  1  0
 11 32  1  0
 11 33  1  0
M  CHG  2   2   1  11   1
M  END
$$$$
=
     RDKit          3D

 30 30  0  0  0  0  0  0  0  0999 V2000
   19.9380   14.9660    6.0710 C   0  0  0  0  0  0  0  0  0  0  0  0
   18.5600   15.2070    5.5280 C   0  0  0  0  0  0  0  0  0  0  0  0
   17.5930   15.8990    6.2660 C   0  0  0  0  0  0  0  0  0  0  0  0
   16.3090   16.0830    5.7430 C   0  0  0  0  0  0  0  0  0  0  0  0
   15.9790   15.5710    4.4870 C   0  0  0  0  0  0  0  0  0  0  0  0
   16.9310   14.8740    3.7470 C   0  0  0  0  0  0  0  0  0  0  0  0
   18.2040   14.6960    4.2750 C   0  0  0  0  0  0  0  0  0  0  0  0
   19.1300   14.0440    3.5560 F   0  0  0  0  0  0  0  0  0  0  0  0
   20.9780   15.7790    5.3680 N   0  0  0  0  0  4  0  0  0  0  0  0
   20.9320   17.2530    5.5860 C   0  0  0  0  0  0  0  0  0  0  0  0
   20.9370   17.9940    4.2530 C   0  0  0  0  0  0  0  0  0  0  0  0
   19.5940   17.4560    2.1490 C   0  0  0  0  0  0  0  0  0  0  0  0
   19.5670   18.0000    3.5700 C   0  0  0  0  0  0  0  0  0  0  0  0
   19.9475   15.2278    7.1394 H   0  0  0  0  0  0  0  0  0  0  0  0
   20.1794   13.9044    5.9140 H   0  0  0  0  0  0  0  0  0  0  0  0
   17.8434   16.2991    7.2596 H   0  0  0  0  0  0  0  0  0  0  0  0
   15.5552   16.6341    6.3245 H   0  0  0  0  0  0  0  0  0  0  0  0
   14.9670   15.7180    4.0817 H   0  0  0  0  0  0  0  0  0  0  0  0
   16.6781   14.4691    2.7560 H   0  0  0  0  0  0  0  0  0  0  0  0
   21.9005   15.4452    5.6817 H   0  0  0  0  0  0  0  0  0  0  0  0
   20.7932   15.6469    4.3634 H   0  0  0  0  0  0  0  0  0  0  0  0
   20.0153   17.5082    6.1379 H   0  0  0  0  0  0  0  0  0  0  0  0
   21.8196   17.5538    6.1619 H   0  0  0  0  0  0  0  0  0  0  0  0
   21.2450   19.0349    4.4311 H   0  0  0  0  0  0  0  0  0  0  0  0
   21.6363   17.4688    3.5858 H   0  0  0  0  0  0  0  0  0  0  0  0
   19.6485   16.3577    2.1778 H   0  0  0  0  0  0  0  0  0  0  0  0
   18.6795   17.7640    1.6210 H   0  0  0  0  0  0  0  0  0  0  0  0
   20.4735   17.8530    1.6210 H   0  0  0  0  0  0  0  0  0  0  0  0
   19.1980   19.0358    3.5392 H   0  0  0  0  0  0  0  0  0  0  0  0
   18.9106   17.3402    4.1563 H   0  0  0  0  0  0  0  0  0  0  0  0
  2  1  1  0
  3  2  2  0
  4  3  1  0
  5  4  2  0
  6  5  1  0
  7  6  2  0
  7  2  1  0
  8  7  1  0
  9  1  1  0
 10  9  1  0
 11 10  1  0
 13 12  1  0
 13 11  1  0
  1 14  1  0
  1 15  1  0
  3 16  1  0
  4 17  1  0
  5 18  1  0
  6 19  1  0
  9 20  1  0
  9 21  1  0
 10 22  1  0
 10 23  1  0
 11 24  1  0
 11 25  1  0
 12 26  1  0
 12 27  1  0
 12 28  1  0
 13 29  1  0
 13 30  1  0
M  CHG  1   9   1
M  END
$$$$
=
     RDKit          3D

 30 31  0  0  0  0  0  0  0  0999 V2000
   20.2560   16.8740    3.9030 C   0  0  0  0  0  0  0  0  0  0  0  0
   20.7440   15.8970    4.9710 C   0  0  0  0  0  0  0  0  0  0  0  0
   19.5950   15.2170    5.7200 C   0  0  0  0  0  0  0  0  0  0  0  0
   18.3810   16.0390    5.6820 N   0  0  0  0  0  0  0  0  0  0  0  0
   18.6060   17.4790    5.7530 C   0  0  0  0  0  0  0  0  0  0  0  0
   19.2980   17.9370    4.4640 C   0  0  0  0  0  0  0  0  0  0  0  0
   17.2920   15.5890    5.0100 C   0  0  0  0  0  0  0  0  0  0  0  0
   15.9630   15.8300    5.4120 C   0  0  0  0  0  0  0  0  0  0  0  0
   15.1800   15.2040    4.4710 C   0  0  0  0  0  0  0  0  0  0  0  0
   16.0520   14.6390    3.5850 N   0  0  0  0  0  0  0  0  0  0  0  0
   17.3500   14.9380    3.8390 N   0  0  0  0  0  0  0  0  0  0  0  0
   13.7120   15.0550    4.3460 C   0  0  0  0  0  0  0  0  0  0  0  0
   19.5830   16.1140    2.8090 N   0  0  0  0  0  4  0  0  0  0  0  0
   21.1368   17.4076    3.5165 H   0  0  0  0  0  0  0  0  0  0  0  0
   21.3551   15.1218    4.4857 H   0  0  0  0  0  0  0  0  0  0  0  0
   21.3252   16.4724    5.7066 H   0  0  0  0  0  0  0  0  0  0  0  0
   19.3855   14.2447    5.2503 H   0  0  0  0  0  0  0  0  0  0  0  0
   19.8934   15.0824    6.7702 H   0  0  0  0  0  0  0  0  0  0  0  0
   17.6423   17.9986    5.8596 H   0  0  0  0  0  0  0  0  0  0  0  0
   19.2396   17.7151    6.6206 H   0  0  0  0  0  0  0  0  0  0  0  0
   19.8708   18.8517    4.6765 H   0  0  0  0  0  0  0  0  0  0  0  0
   18.5174   18.1160    3.7100 H   0  0  0  0  0  0  0  0  0  0  0  0
   15.6243   16.3978    6.2911 H   0  0  0  0  0  0  0  0  0  0  0  0
   15.7528   14.0434    2.7998 H   0  0  0  0  0  0  0  0  0  0  0  0
   13.2614   15.0093    5.3484 H   0  0  0  0  0  0  0  0  0  0  0  0
   13.3014   15.9161    3.7984 H   0  0  0  0  0  0  0  0  0  0  0  0
   13.4827   14.1290    3.7984 H   0  0  0  0  0  0  0  0  0  0  0  0
   18.9563   15.4062    3.2179 H   0  0  0  0  0  0  0  0  0  0  0  0
   19.0345   16.7632    2.2271 H   0  0  0  0  0  0  0  0  0  0  0  0
   20.2938   15.6481    2.2271 H   0  0  0  0  0  0  0  0  0  0  0  0
  2  1  1  0
  3  2  1  0
  4  3  1  0
  5  4  1  0
  6  1  1  0
  6  5  1  0
  7  4  1  0
  8  7  1  0
  9  8  2  0
 10  9  1  0
 11 10  1  0
 11  7  2  0
 12  9  1  0
 13  1  1  0
  1 14  1  0
  2 15  1  0
  2 16  1  0
  3 17  1  0
  3 18  1  0
  5 19  1  0
  5 20  1  0
  6 21  1  0
  6 22  1  0
  8 23  1  0
 10 24  1  0
 12 25  1  0
 12 26  1  0
 12 27  1  0
 13 28  1  0
 13 29  1  0
 13 30  1  0
M  CHG  1  13   1
M  END
$$$$
=
     RDKit          3D

 44 45  0  0  0  0  0  0  0  0999 V2000
   16.4900   16.1050    5.9540 C   0  0  0  0  0  0  0  0  0  0  0  0
   17.5410   17.1510    5.6880 N   0  0  0  0  0  4  0  0  0  0  0  0
   18.8660   16.6890    5.1570 C   0  0  2  0  0  0  0  0  0  0  0  0
   19.4660   15.6190    6.0670 C   0  0  0  0  0  0  0  0  0  0  0  0
   20.8770   15.2380    5.6230 C   0  0  0  0  0  0  0  0  0  0  0  0
   21.7880   16.4580    5.5200 C   0  0  0  0  0  0  0  0  0  0  0  0
   21.1930   17.5290    4.5980 C   0  0  1  0  0  0  0  0  0  0  0  0
   19.7800   17.9160    5.0570 C   0  0  0  0  0  0  0  0  0  0  0  0
   22.0990   18.7590    4.5450 C   0  0  0  0  0  0  0  0  0  0  0  0
   15.4000   16.0790    4.8750 C   0  0  0  0  0  0  0  0  0  0  0  0
   14.0570   14.0920    3.9960 C   0  0  0  0  0  0  0  0  0  0  0  0
   14.0040   12.8740    3.3120 C   0  0  0  0  0  0  0  0  0  0  0  0
   15.1540   12.3430    2.7270 C   0  0  0  0  0  0  0  0  0  0  0  0
   16.3630   13.0230    2.8200 C   0  0  0  0  0  0  0  0  0  0  0  0
   16.4300   14.2330    3.5090 C   0  0  0  0  0  0  0  0  0  0  0  0
   15.2830   14.7720    4.1170 C   0  0  0  0  0  0  0  0  0  0  0  0
   11.6940   14.1980    4.2180 C   0  0  0  0  0  0  0  0  0  0  0  0
   12.9810   14.6750    4.6120 O   0  0  0  0  0  0  0  0  0  0  0  0
   16.9752   15.1184    5.9889 H   0  0  0  0  0  0  0  0  0  0  0  0
   16.0070   16.3526    6.9108 H   0  0  0  0  0  0  0  0  0  0  0  0
   17.1493   17.8135    5.0035 H   0  0  0  0  0  0  0  0  0  0  0  0
   17.7554   17.5462    6.6147 H   0  0  0  0  0  0  0  0  0  0  0  0
   18.7472   16.2313    4.1638 H   0  0  0  0  0  0  0  0  0  0  0  0
   19.5067   16.0058    7.0959 H   0  0  0  0  0  0  0  0  0  0  0  0
   18.8315   14.7221    6.0123 H   0  0  0  0  0  0  0  0  0  0  0  0
   21.3032   14.5362    6.3550 H   0  0  0  0  0  0  0  0  0  0  0  0
   20.8089   14.7772    4.6265 H   0  0  0  0  0  0  0  0  0  0  0  0
   21.9254   16.8869    6.5236 H   0  0  0  0  0  0  0  0  0  0  0  0
   22.7503   16.1347    5.0965 H   0  0  0  0  0  0  0  0  0  0  0  0
   21.1222   17.1092    3.5837 H   0  0  0  0  0  0  0  0  0  0  0  0
   19.8439   18.3956    6.0449 H   0  0  0  0  0  0  0  0  0  0  0  0
   19.3524   18.6053    4.3140 H   0  0  0  0  0  0  0  0  0  0  0  0
   22.3377   19.0830    5.5688 H   0  0  0  0  0  0  0  0  0  0  0  0
   23.0288   18.5069    4.0141 H   0  0  0  0  0  0  0  0  0  0  0  0
   21.5825   19.5722    4.0141 H   0  0  0  0  0  0  0  0  0  0  0  0
   14.4337   16.2799    5.3607 H   0  0  0  0  0  0  0  0  0  0  0  0
   15.6818   16.8412    4.1336 H   0  0  0  0  0  0  0  0  0  0  0  0
   13.0504   12.3312    3.2346 H   0  0  0  0  0  0  0  0  0  0  0  0
   15.1039   11.3838    2.1908 H   0  0  0  0  0  0  0  0  0  0  0  0
   17.2662   12.6065    2.3502 H   0  0  0  0  0  0  0  0  0  0  0  0
   17.3876   14.7700    3.5774 H   0  0  0  0  0  0  0  0  0  0  0  0
   11.0952   13.9761    5.1137 H   0  0  0  0  0  0  0  0  0  0  0  0
   11.1856   14.9674    3.6184 H   0  0  0  0  0  0  0  0  0  0  0  0
   11.8098   13.2831    3.6184 H   0  0  0  0  0  0  0  0  0  0  0  0
  2  1  1  0
  3  2  1  0
  4  3  1  0
  5  4  1  0
  6  5  1  0
  7  6  1  0
  8  7  1  0
  8  3  1  0
  9  7  1  0
 10  1  1  0
 12 11  2  0
 13 12  1  0
 14 13  2  0
 15 14  1  0
 16 11  1  0
 16 10  1  0
 16 15  2  0
 18 17  1  0
 18 11  1  0
  1 19  1  0
  1 20  1  0
  2 21  1  0
  2 22  1  0
  3 23  1  6
  4 24  1  0
  4 25  1  0
  5 26  1  0
  5 27  1  0
  6 28  1  0
  6 29  1  0
  7 30  1  6
  8 31  1  0
  8 32  1  0
  9 33  1  0
  9 34  1  0
  9 35  1  0
 10 36  1  0
 10 37  1  0
 12 38  1  0
 13 39  1  0
 14 40  1  0
 15 41  1  0
 17 42  1  0
 17 43  1  0
 17 44  1  0
M  CHG  1   2   1
M  END
$$$$
=
     RDKit          3D

 40 40  0  0  0  0  0  0  0  0999 V2000
   15.8580   13.2050    2.9030 C   0  0  0  0  0  0  0  0  0  0  0  0
   14.7750   12.3140    2.8900 C   0  0  0  0  0  0  0  0  0  0  0  0
   13.5470   12.6870    3.4350 C   0  0  0  0  0  0  0  0  0  0  0  0
   13.3830   13.9490    4.0100 C   0  0  0  0  0  0  0  0  0  0  0  0
   14.4610   14.8460    4.0200 C   0  0  0  0  0  0  0  0  0  0  0  0
   15.7000   14.4750    3.4930 C   0  0  0  0  0  0  0  0  0  0  0  0
   12.0470   14.3640    4.5590 C   0  0  0  0  0  0  0  0  0  0  0  0
   17.1770   12.7810    2.3220 C   0  0  0  0  0  0  0  0  0  0  0  0
   18.1200   12.3130    3.3620 N   0  0  0  0  0  4  0  0  0  0  0  0
   16.8060   15.2890    3.4450 O   0  0  0  0  0  0  0  0  0  0  0  0
   17.5100   15.5440    4.6750 C   0  0  2  0  0  0  0  0  0  0  0  0
   16.8330   16.7130    5.3910 C   0  0  0  0  0  0  0  0  0  0  0  0
   18.9580   15.9260    4.3130 C   0  0  0  0  0  0  0  0  0  0  0  0
   19.1270   17.3570    3.7620 C   0  0  0  0  0  0  0  0  0  0  0  0
   19.5350   17.3730    2.2890 C   0  0  0  0  0  0  0  0  0  0  0  0
   20.1680   18.1110    4.5940 C   0  0  0  0  0  0  0  0  0  0  0  0
   14.8951   11.3144    2.4469 H   0  0  0  0  0  0  0  0  0  0  0  0
   12.7022   11.9829    3.4119 H   0  0  0  0  0  0  0  0  0  0  0  0
   14.3294   15.8512    4.4469 H   0  0  0  0  0  0  0  0  0  0  0  0
   12.0828   14.3529    5.6584 H   0  0  0  0  0  0  0  0  0  0  0  0
   11.8066   15.3792    4.2102 H   0  0  0  0  0  0  0  0  0  0  0  0
   11.2737   13.6637    4.2102 H   0  0  0  0  0  0  0  0  0  0  0  0
   17.0030   11.9631    1.6073 H   0  0  0  0  0  0  0  0  0  0  0  0
   17.6255   13.6553    1.8275 H   0  0  0  0  0  0  0  0  0  0  0  0
   17.7275   12.5078    4.2941 H   0  0  0  0  0  0  0  0  0  0  0  0
   18.2706   11.2994    3.2579 H   0  0  0  0  0  0  0  0  0  0  0  0
   19.0183   12.8060    3.2579 H   0  0  0  0  0  0  0  0  0  0  0  0
   17.5014   14.6611    5.3311 H   0  0  0  0  0  0  0  0  0  0  0  0
   16.9140   16.5731    6.4790 H   0  0  0  0  0  0  0  0  0  0  0  0
   17.3262   17.6536    5.1045 H   0  0  0  0  0  0  0  0  0  0  0  0
   15.7717   16.7534    5.1045 H   0  0  0  0  0  0  0  0  0  0  0  0
   19.5741   15.8326    5.2194 H   0  0  0  0  0  0  0  0  0  0  0  0
   19.2680   15.2437    3.5078 H   0  0  0  0  0  0  0  0  0  0  0  0
   18.1482   17.8535    3.8358 H   0  0  0  0  0  0  0  0  0  0  0  0
   20.6315   17.4160    2.2127 H   0  0  0  0  0  0  0  0  0  0  0  0
   19.1687   16.4598    1.7971 H   0  0  0  0  0  0  0  0  0  0  0  0
   19.0984   18.2547    1.7971 H   0  0  0  0  0  0  0  0  0  0  0  0
   19.9609   17.9610    5.6639 H   0  0  0  0  0  0  0  0  0  0  0  0
   21.1723   17.7295    4.3579 H   0  0  0  0  0  0  0  0  0  0  0  0
   20.1186   19.1842    4.3579 H   0  0  0  0  0  0  0  0  0  0  0  0
  2  1  2  0
  3  2  1  0
  4  3  2  0
  5  4  1  0
  6  5  2  0
  6  1  1  0
  7  4  1  0
  8  1  1  0
  9  8  1  0
 10  6  1  0
 11 10  1  0
 12 11  1  0
 13 11  1  0
 14 13  1  0
 15 14  1  0
 16 14  1  0
  2 17  1  0
  3 18  1  0
  5 19  1  0
  7 20  1  0
  7 21  1  0
  7 22  1  0
  8 23  1  0
  8 24  1  0
  9 25  1  0
  9 26  1  0
  9 27  1  0
 11 28  1  1
 12 29  1  0
 12 30  1  0
 12 31  1  0
 13 32  1  0
 13 33  1  0
 14 34  1  0
 15 35  1  0
 15 36  1  0
 15 37  1  0
 16 38  1  0
 16 39  1  0
 16 40  1  0
M  CHG  1   9   1
M  END
$$$$
=
     RDKit          3D

 44 47  0  0  0  0  0  0  0  0999 V2000
   26.4870   26.3460   15.7980 N   0  0  0  0  0  0  0  0  0  0  0  0
   25.6730   26.7850   16.8360 N   0  0  0  0  0  4  0  0  0  0  0  0
   24.2010   26.9310   16.6570 C   0  0  0  0  0  0  0  0  0  0  0  0
   23.3210   27.4070   17.7590 N   0  0  0  0  0  4  0  0  0  0  0  0
   22.2370   27.8890   17.4260 O   0  0  0  0  0  0  0  0  0  0  0  0
   23.7810   27.2950   18.8970 O   0  0  0  0  0  1  0  0  0  0  0  0
   23.6460   26.6990   15.2980 C   0  0  1  0  0  0  0  0  0  0  0  0
   24.6680   26.1590   14.3360 N   0  0  0  0  0  4  0  0  0  0  0  0
   26.0350   26.7240   14.4210 C   0  0  2  0  0  0  0  0  0  0  0  0
   30.1890   29.6450   15.9580 C   0  0  0  0  0  0  0  0  0  0  0  0
   29.7020   28.2290   16.0610 C   0  0  0  0  0  0  0  0  0  0  0  0
   30.6080   27.1840   16.2670 C   0  0  0  0  0  0  0  0  0  0  0  0
   30.1630   25.8640   16.3170 C   0  0  0  0  0  0  0  0  0  0  0  0
   28.8070   25.5750   16.1600 C   0  0  0  0  0  0  0  0  0  0  0  0
   27.8810   26.6080   15.9560 C   0  0  0  0  0  0  0  0  0  0  0  0
   28.3440   27.9310   15.8870 C   0  0  0  0  0  0  0  0  0  0  0  0
   26.8200   26.2120   13.2460 C   0  0  0  0  0  0  0  0  0  0  0  0
   27.8490   26.7290   12.4840 C   0  0  0  0  0  0  0  0  0  0  0  0
   28.1490   25.7530   11.5020 C   0  0  0  0  0  0  0  0  0  0  0  0
   27.2820   24.7080   11.7160 C   0  0  0  0  0  0  0  0  0  0  0  0
   26.4630   24.9780   12.7660 O   0  0  0  0  0  0  0  0  0  0  0  0
   22.4870   25.7520   15.2460 C   0  0  0  0  0  0  0  0  0  0  0  0
   21.2530   25.7330   14.6280 C   0  0  0  0  0  0  0  0  0  0  0  0
   20.6170   24.5360   15.0440 C   0  0  0  0  0  0  0  0  0  0  0  0
   21.4890   23.9130   15.9030 C   0  0  0  0  0  0  0  0  0  0  0  0
   22.6180   24.6510   16.0470 O   0  0  0  0  0  0  0  0  0  0  0  0
   26.0959   27.0139   17.7469 H   0  0  0  0  0  0  0  0  0  0  0  0
   23.3096   27.7056   15.0088 H   0  0  0  0  0  0  0  0  0  0  0  0
   24.7405   25.1442   14.4967 H   0  0  0  0  0  0  0  0  0  0  0  0
   24.3250   26.4269   13.4025 H   0  0  0  0  0  0  0  0  0  0  0  0
   26.1454   27.8148   14.3312 H   0  0  0  0  0  0  0  0  0  0  0  0
   30.3311   30.0582   16.9675 H   0  0  0  0  0  0  0  0  0  0  0  0
   31.1457   29.6652   15.4155 H   0  0  0  0  0  0  0  0  0  0  0  0
   29.4471   30.2494   15.4155 H   0  0  0  0  0  0  0  0  0  0  0  0
   31.6785   27.4050   16.3904 H   0  0  0  0  0  0  0  0  0  0  0  0
   30.8825   25.0482   16.4806 H   0  0  0  0  0  0  0  0  0  0  0  0
   28.4625   24.5310   16.1965 H   0  0  0  0  0  0  0  0  0  0  0  0
   27.6306   28.7457   15.6936 H   0  0  0  0  0  0  0  0  0  0  0  0
   28.3388   27.7054   12.6138 H   0  0  0  0  0  0  0  0  0  0  0  0
   28.9225   25.8184   10.7226 H   0  0  0  0  0  0  0  0  0  0  0  0
   27.2550   23.7833   11.1209 H   0  0  0  0  0  0  0  0  0  0  0  0
   20.8443   26.4949   13.9480 H   0  0  0  0  0  0  0  0  0  0  0  0
   19.6227   24.1775   14.7393 H   0  0  0  0  0  0  0  0  0  0  0  0
   21.2988   22.9519   16.4032 H   0  0  0  0  0  0  0  0  0  0  0  0
  2  1  1  0
  3  2  2  0
  4  3  1  0
  5  4  2  0
  6  4  1  0
  7  3  1  0
  8  7  1  0
  9  8  1  0
  9  1  1  0
 11 10  1  0
 12 11  2  0
 13 12  1  0
 14 13  2  0
 15  1  1  0
 15 14  1  0
 16 15  2  0
 16 11  1  0
 17  9  1  0
 18 17  2  0
 19 18  1  0
 20 19  2  0
 21 17  1  0
 21 20  1  0
 22  7  1  0
 23 22  2  0
 24 23  1  0
 25 24  2  0
 26 25  1  0
 26 22  1  0
  2 27  1  0
  7 28  1  6
  8 29  1  0
  8 30  1  0
  9 31  1  1
 10 32  1  0
 10 33  1  0
 10 34  1  0
 12 35  1  0
 13 36  1  0
 14 37  1  0
 16 38  1  0
 18 39  1  0
 19 40  1  0
 20 41  1  0
 23 42  1  0
 24 43  1  0
 25 44  1  0
M  CHG  4   2   1   4   1   6  -1   8   1
M  END
$$$$
=
     RDKit          3D

 26 25  0  0  0  0  0  0  0  0999 V2000
   18.8710   15.1730    4.5160 C   0  0  1  0  0  0  0  0  0  0  0  0
   19.4420   14.6850    5.8500 C   0  0  0  0  0  0  0  0  0  0  0  0
   18.7950   13.9330    3.6210 N   0  0  0  0  0  4  0  0  0  0  0  0
   17.4450   15.7960    4.6020 C   0  0  0  0  0  0  0  0  0  0  0  0
   16.3540   14.9760    3.8970 C   0  0  0  0  0  0  0  0  0  0  0  0
   16.9930   16.0520    6.0490 C   0  0  0  0  0  0  0  0  0  0  0  0
   19.8460   16.2000    3.8780 C   0  0  0  0  0  0  0  0  0  0  0  0
   20.6490   16.8820    4.4900 O   0  0  0  0  0  0  0  0  0  0  0  0
   19.6900   17.5310    1.9510 C   0  0  0  0  0  0  0  0  0  0  0  0
   19.6660   16.2140    2.5210 O   0  0  0  0  0  0  0  0  0  0  0  0
   18.8918   15.1552    6.6783 H   0  0  0  0  0  0  0  0  0  0  0  0
   19.3387   13.5918    5.9151 H   0  0  0  0  0  0  0  0  0  0  0  0
   20.5058   14.9573    5.9151 H   0  0  0  0  0  0  0  0  0  0  0  0
   18.7432   13.0884    4.2082 H   0  0  0  0  0  0  0  0  0  0  0  0
   17.9559   13.9897    3.0264 H   0  0  0  0  0  0  0  0  0  0  0  0
   19.6347   13.8868    3.0264 H   0  0  0  0  0  0  0  0  0  0  0  0
   17.5563   16.7521    4.0696 H   0  0  0  0  0  0  0  0  0  0  0  0
   15.7131   14.4943    4.6501 H   0  0  0  0  0  0  0  0  0  0  0  0
   15.7442   15.6412    3.2680 H   0  0  0  0  0  0  0  0  0  0  0  0
   16.8234   14.2053    3.2680 H   0  0  0  0  0  0  0  0  0  0  0  0
   17.7345   15.6320    6.7445 H   0  0  0  0  0  0  0  0  0  0  0  0
   16.9032   17.1351    6.2189 H   0  0  0  0  0  0  0  0  0  0  0  0
   16.0179   15.5721    6.2189 H   0  0  0  0  0  0  0  0  0  0  0  0
   19.7036   18.2793    2.7572 H   0  0  0  0  0  0  0  0  0  0  0  0
   20.5904   17.6452    1.3295 H   0  0  0  0  0  0  0  0  0  0  0  0
   18.7944   17.6779    1.3295 H   0  0  0  0  0  0  0  0  0  0  0  0
  2  1  1  0
  3  1  1  0
  4  1  1  0
  5  4  1  0
  6  4  1  0
  1  7  1  6
  8  7  2  0
 10  7  1  0
 10  9  1  0
  2 11  1  0
  2 12  1  0
  2 13  1  0
  3 14  1  0
  3 15  1  0
  3 16  1  0
  4 17  1  0
  5 18  1  0
  5 19  1  0
  5 20  1  0
  6 21  1  0
  6 22  1  0
  6 23  1  0
  9 24  1  0
  9 25  1  0
  9 26  1  0
M  CHG  1   3   1
M  END
$$$$
=
     RDKit          3D

 31 31  0  0  0  0  0  0  0  0999 V2000
   19.6930   15.7890    5.4750 C   0  0  1  0  0  0  0  0  0  0  0  0
   18.2060   15.6490    5.3620 C   0  0  0  0  0  0  0  0  0  0  0  0
   17.2160   15.9170    6.3380 C   0  0  0  0  0  0  0  0  0  0  0  0
   15.9810   15.7210    5.8830 N   0  0  0  0  0  0  0  0  0  0  0  0
   16.1570   15.2440    4.6440 N   0  0  0  0  0  0  0  0  0  0  0  0
   17.4730   15.2030    4.2720 C   0  0  0  0  0  0  0  0  0  0  0  0
   15.0080   14.8470    3.8630 C   0  0  0  0  0  0  0  0  0  0  0  0
   20.0920   17.2390    5.6420 N   0  0  0  0  0  4  0  0  0  0  0  0
   19.7220   18.1720    4.5340 C   0  0  0  0  0  0  0  0  0  0  0  0
   19.5710   17.5190    2.0730 C   0  0  0  0  0  0  0  0  0  0  0  0
   20.4780   17.8010    3.2610 C   0  0  0  0  0  0  0  0  0  0  0  0
   20.3680   14.9150    6.5630 C   0  0  0  0  0  0  0  0  0  0  0  0
   21.4950   15.5920    7.1050 O   0  0  0  0  0  0  0  0  0  0  0  0
   20.0738   15.3987    4.5197 H   0  0  0  0  0  0  0  0  0  0  0  0
   17.4431   16.2509    7.3612 H   0  0  0  0  0  0  0  0  0  0  0  0
   17.8717   14.8797    3.2991 H   0  0  0  0  0  0  0  0  0  0  0  0
   14.1866   14.5632    4.5374 H   0  0  0  0  0  0  0  0  0  0  0  0
   14.6880   15.6867    3.2285 H   0  0  0  0  0  0  0  0  0  0  0  0
   15.2746   13.9889    3.2285 H   0  0  0  0  0  0  0  0  0  0  0  0
   19.6480   17.5871    6.5038 H   0  0  0  0  0  0  0  0  0  0  0  0
   21.1219   17.2349    5.6582 H   0  0  0  0  0  0  0  0  0  0  0  0
   18.6401   18.1042    4.3474 H   0  0  0  0  0  0  0  0  0  0  0  0
   19.9883   19.1990    4.8243 H   0  0  0  0  0  0  0  0  0  0  0  0
   18.5789   17.2105    2.4342 H   0  0  0  0  0  0  0  0  0  0  0  0
   19.4724   18.4289    1.4628 H   0  0  0  0  0  0  0  0  0  0  0  0
   20.0058   16.7136    1.4628 H   0  0  0  0  0  0  0  0  0  0  0  0
   21.0769   16.9006    3.4624 H   0  0  0  0  0  0  0  0  0  0  0  0
   21.1007   18.6670    2.9923 H   0  0  0  0  0  0  0  0  0  0  0  0
   19.6448   14.7117    7.3665 H   0  0  0  0  0  0  0  0  0  0  0  0
   20.7002   13.9694    6.1098 H   0  0  0  0  0  0  0  0  0  0  0  0
   21.4516   15.5659    8.0937 H   0  0  0  0  0  0  0  0  0  0  0  0
  2  1  1  0
  3  2  1  0
  4  3  2  0
  5  4  1  0
  6  5  1  0
  6  2  2  0
  7  5  1  0
  8  1  1  0
  9  8  1  0
 11 10  1  0
 11  9  1  0
 12  1  1  0
 13 12  1  0
  1 14  1  6
  3 15  1  0
  6 16  1  0
  7 17  1  0
  7 18  1  0
  7 19  1  0
  8 20  1  0
  8 21  1  0
  9 22  1  0
  9 23  1  0
 10 24  1  0
 10 25  1  0
 10 26  1  0
 11 27  1  0
 11 28  1  0
 12 29  1  0
 12 30  1  0
 13 31  1  0
M  CHG  1   8   1
M  END
$$$$
=
     RDKit          3D

 29 28  0  0  0  0  0  0  0  0999 V2000
   21.1700   17.8570    4.9640 C   0  0  0  0  0  0  0  0  0  0  0  0
   22.2870   18.8110    4.5090 C   0  0  0  0  0  0  0  0  0  0  0  0
   20.1130   18.7230    5.7070 C   0  0  0  0  0  0  0  0  0  0  0  0
   21.6380   16.7890    5.9990 C   0  0  0  0  0  0  0  0  0  0  0  0
   21.7960   15.4290    5.4460 N   0  0  0  0  0  4  0  0  0  0  0  0
   20.4150   17.2340    3.7370 C   0  0  0  0  0  0  0  0  0  0  0  0
   18.9110   16.9460    3.8060 C   0  0  0  0  0  0  0  0  0  0  0  0
   18.5110   15.2750    4.2500 S   0  0  0  0  0  6  0  0  0  0  0  0
   19.3980   14.4190    3.4760 O   0  0  0  0  0  0  0  0  0  0  0  0
   18.5520   15.1810    5.6950 O   0  0  0  0  0  0  0  0  0  0  0  0
   16.8380   15.0500    3.6890 C   0  0  0  0  0  0  0  0  0  0  0  0
   22.7867   19.2377    5.3912 H   0  0  0  0  0  0  0  0  0  0  0  0
   23.0200   18.2559    3.9052 H   0  0  0  0  0  0  0  0  0  0  0  0
   21.8534   19.6218    3.9052 H   0  0  0  0  0  0  0  0  0  0  0  0
   20.2470   18.6132    6.7933 H   0  0  0  0  0  0  0  0  0  0  0  0
   20.2414   19.7789    5.4266 H   0  0  0  0  0  0  0  0  0  0  0  0
   19.1030   18.3894    5.4266 H   0  0  0  0  0  0  0  0  0  0  0  0
   22.6079   17.1086    6.4078 H   0  0  0  0  0  0  0  0  0  0  0  0
   20.8490   16.7266    6.7629 H   0  0  0  0  0  0  0  0  0  0  0  0
   21.8747   14.7515    6.2178 H   0  0  0  0  0  0  0  0  0  0  0  0
   20.9764   15.1964    4.8672 H   0  0  0  0  0  0  0  0  0  0  0  0
   22.6471   15.3905    4.8672 H   0  0  0  0  0  0  0  0  0  0  0  0
   20.5641   17.9239    2.8933 H   0  0  0  0  0  0  0  0  0  0  0  0
   20.8537   16.2278    3.6651 H   0  0  0  0  0  0  0  0  0  0  0  0
   18.4649   17.6181    4.5539 H   0  0  0  0  0  0  0  0  0  0  0  0
   18.5108   17.1092    2.7945 H   0  0  0  0  0  0  0  0  0  0  0  0
   16.1690   14.9600    4.5575 H   0  0  0  0  0  0  0  0  0  0  0  0
   16.5355   15.9155    3.0813 H   0  0  0  0  0  0  0  0  0  0  0  0
   16.7749   14.1353    3.0813 H   0  0  0  0  0  0  0  0  0  0  0  0
  2  1  1  0
  3  1  1  0
  4  1  1  0
  5  4  1  0
  6  1  1  0
  7  6  1  0
  8  7  1  0
  9  8  2  0
 10  8  2  0
 11  8  1  0
  2 12  1  0
  2 13  1  0
  2 14  1  0
  3 15  1  0
  3 16  1  0
  3 17  1  0
  4 18  1  0
  4 19  1  0
  5 20  1  0
  5 21  1  0
  5 22  1  0
  6 23  1  0
  6 24  1  0
  7 25  1  0
  7 26  1  0
 11 27  1  0
 11 28  1  0
 11 29  1  0
M  CHG  1   5   1
M  END
$$$$
=
     RDKit          3D

 20 19  0  0  0  0  0  0  0  0999 V2000
   17.9870   15.5660    5.2890 C   0  0  1  0  0  0  0  0  0  0  0  0
   16.8680   16.3840    5.9740 C   0  0  0  0  0  0  0  0  0  0  0  0
   17.3910   17.5740    6.3630 F   0  0  0  0  0  0  0  0  0  0  0  0
   15.8250   16.6230    5.1680 F   0  0  0  0  0  0  0  0  0  0  0  0
   16.4420   15.7520    7.0890 F   0  0  0  0  0  0  0  0  0  0  0  0
   17.9360   15.7980    3.7580 N   0  0  0  0  0  4  0  0  0  0  0  0
   19.0870   16.5260    3.1640 C   0  0  0  0  0  0  0  0  0  0  0  0
   20.0770   14.7880    6.5410 C   0  0  0  0  0  0  0  0  0  0  0  0
   19.3960   15.9190    5.7850 C   0  0  0  0  0  0  0  0  0  0  0  0
   17.8001   14.5130    5.5462 H   0  0  0  0  0  0  0  0  0  0  0  0
   17.8790   14.8759    3.3026 H   0  0  0  0  0  0  0  0  0  0  0  0
   17.1171   16.4021    3.5988 H   0  0  0  0  0  0  0  0  0  0  0  0
   19.7214   16.9273    3.9680 H   0  0  0  0  0  0  0  0  0  0  0  0
   19.6759   15.8358    2.5421 H   0  0  0  0  0  0  0  0  0  0  0  0
   18.7157   17.3539    2.5421 H   0  0  0  0  0  0  0  0  0  0  0  0
   19.9753   14.9569    7.6232 H   0  0  0  0  0  0  0  0  0  0  0  0
   19.6046   13.8314    6.2732 H   0  0  0  0  0  0  0  0  0  0  0  0
   21.1435   14.7579    6.2732 H   0  0  0  0  0  0  0  0  0  0  0  0
   20.0163   16.1782    4.9144 H   0  0  0  0  0  0  0  0  0  0  0  0
   19.2895   16.7584    6.4879 H   0  0  0  0  0  0  0  0  0  0  0  0
  2  1  1  0
  3  2  1  0
  4  2  1  0
  5  2  1  0
  6  1  1  0
  7  6  1  0
  9  1  1  0
  9  8  1  0
  1 10  1  6
  6 11  1  0
  6 12  1  0
  7 13  1  0
  7 14  1  0
  7 15  1  0
  8 16  1  0
  8 17  1  0
  8 18  1  0
  9 19  1  0
  9 20  1  0
M  CHG  1   6   1
M  END
$$$$
=
     RDKit          3D

 27 28  0  0  0  0  0  0  0  0999 V2000
   18.1910   16.6370    4.5670 C   0  0  1  0  0  0  0  0  0  0  0  0
   17.8310   15.9010    5.8770 C   0  0  0  0  0  0  0  0  0  0  0  0
   19.0330   15.1970    6.5220 C   0  0  0  0  0  0  0  0  0  0  0  0
   20.2840   15.9830    6.3780 C   0  0  0  0  0  0  0  0  0  0  0  0
   20.3760   17.1200    5.6200 N   0  0  0  0  0  0  0  0  0  0  0  0
   19.2730   17.6940    4.8800 C   0  0  0  0  0  0  0  0  0  0  0  0
   21.6790   17.5250    5.6720 C   0  0  0  0  0  0  0  0  0  0  0  0
   22.3490   16.6560    6.4030 N   0  0  0  0  0  0  0  0  0  0  0  0
   21.4760   15.6890    6.8400 N   0  0  0  0  0  0  0  0  0  0  0  0
   22.2000   18.7230    4.9760 C   0  0  0  0  0  0  0  0  0  0  0  0
   22.0210   18.6030    3.6300 F   0  0  0  0  0  0  0  0  0  0  0  0
   23.5500   18.8040    5.1520 F   0  0  0  0  0  0  0  0  0  0  0  0
   18.6660   15.7130    3.4330 C   0  0  0  0  0  0  0  0  0  0  0  0
   19.5490   16.4400    2.4850 N   0  0  0  0  0  4  0  0  0  0  0  0
   17.2675   17.1043    4.1945 H   0  0  0  0  0  0  0  0  0  0  0  0
   17.4300   16.6346    6.5919 H   0  0  0  0  0  0  0  0  0  0  0  0
   17.0929   15.1253    5.6252 H   0  0  0  0  0  0  0  0  0  0  0  0
   18.8265   15.0520    7.5927 H   0  0  0  0  0  0  0  0  0  0  0  0
   19.1769   14.2345    6.0093 H   0  0  0  0  0  0  0  0  0  0  0  0
   19.6535   18.1071    3.9342 H   0  0  0  0  0  0  0  0  0  0  0  0
   18.8171   18.4829    5.4962 H   0  0  0  0  0  0  0  0  0  0  0  0
   21.6710   19.5981    5.3814 H   0  0  0  0  0  0  0  0  0  0  0  0
   19.2222   14.8688    3.8666 H   0  0  0  0  0  0  0  0  0  0  0  0
   17.7840   15.3532    2.8829 H   0  0  0  0  0  0  0  0  0  0  0  0
   20.2315   17.0019    3.0136 H   0  0  0  0  0  0  0  0  0  0  0  0
   20.0484   15.7618    1.8921 H   0  0  0  0  0  0  0  0  0  0  0  0
   18.9793   17.0603    1.8921 H   0  0  0  0  0  0  0  0  0  0  0  0
  2  1  1  0
  3  2  1  0
  4  3  1  0
  5  4  1  0
  6  1  1  0
  6  5  1  0
  7  5  1  0
  8  7  2  0
  9  4  2  0
  9  8  1  0
 10  7  1  0
 11 10  1  0
 12 10  1  0
 13  1  1  0
 14 13  1  0
  1 15  1  6
  2 16  1  0
  2 17  1  0
  3 18  1  0
  3 19  1  0
  6 20  1  0
  6 21  1  0
 10 22  1  0
 13 23  1  0
 13 24  1  0
 14 25  1  0
 14 26  1  0
 14 27  1  0
M  CHG  1  14   1
M  END
$$$$
=
     RDKit          3D

 25 25  0  0  0  0  0  0  0  0999 V2000
   21.4030   16.7450    4.8100 C   0  0  2  0  0  0  0  0  0  0  0  0
   22.1780   17.0730    6.0870 C   0  0  0  0  0  0  0  0  0  0  0  0
   22.9140   18.3460    5.7720 N   0  0  0  0  0  4  0  0  0  0  0  0
   22.3740   18.9030    4.4930 C   0  0  0  0  0  0  0  0  0  0  0  0
   21.0840   18.1410    4.2710 C   0  0  0  0  0  0  0  0  0  0  0  0
   18.9030   16.6880    5.2440 C   0  0  0  0  0  0  0  0  0  0  0  0
   20.1720   15.8500    5.0570 C   0  0  0  0  0  0  0  0  0  0  0  0
   20.3730   14.9380    6.2720 C   0  0  0  0  0  0  0  0  0  0  0  0
   19.9940   15.0330    3.9010 O   0  0  0  0  0  0  0  0  0  0  0  0
   21.9639   16.1322    4.0890 H   0  0  0  0  0  0  0  0  0  0  0  0
   21.4888   17.2224    6.9312 H   0  0  0  0  0  0  0  0  0  0  0  0
   22.8592   16.2606    6.3801 H   0  0  0  0  0  0  0  0  0  0  0  0
   22.7741   19.0256    6.5333 H   0  0  0  0  0  0  0  0  0  0  0  0
   23.9219   18.1563    5.6764 H   0  0  0  0  0  0  0  0  0  0  0  0
   22.1786   19.9813    4.5888 H   0  0  0  0  0  0  0  0  0  0  0  0
   23.0780   18.7926    3.6550 H   0  0  0  0  0  0  0  0  0  0  0  0
   20.8285   18.1017    3.2018 H   0  0  0  0  0  0  0  0  0  0  0  0
   20.2186   18.6062    4.7656 H   0  0  0  0  0  0  0  0  0  0  0  0
   18.7049   16.8188    6.3181 H   0  0  0  0  0  0  0  0  0  0  0  0
   19.0414   17.6729    4.7741 H   0  0  0  0  0  0  0  0  0  0  0  0
   18.0516   16.1739    4.7741 H   0  0  0  0  0  0  0  0  0  0  0  0
   20.2441   15.5228    7.1947 H   0  0  0  0  0  0  0  0  0  0  0  0
   19.6325   14.1250    6.2467 H   0  0  0  0  0  0  0  0  0  0  0  0
   21.3867   14.5116    6.2467 H   0  0  0  0  0  0  0  0  0  0  0  0
   19.7918   14.1051    4.1807 H   0  0  0  0  0  0  0  0  0  0  0  0
  2  1  1  0
  3  2  1  0
  4  3  1  0
  5  1  1  0
  5  4  1  0
  7  6  1  0
  7  1  1  0
  8  7  1  0
  9  7  1  0
  1 10  1  6
  2 11  1  0
  2 12  1  0
  3 13  1  0
  3 14  1  0
  4 15  1  0
  4 16  1  0
  5 17  1  0
  5 18  1  0
  6 19  1  0
  6 20  1  0
  6 21  1  0
  8 22  1  0
  8 23  1  0
  8 24  1  0
  9 25  1  0
M  CHG  1   3   1
M  END
$$$$
=
     RDKit          3D

 36 38  0  0  0  0  0  0  0  0999 V2000
   29.7570   24.4400   14.5120 C   0  0  2  0  0  0  0  0  0  0  0  0
   30.6110   24.1150   15.7230 C   0  0  0  0  0  0  0  0  0  0  0  0
   29.8900   24.4480   17.0220 C   0  0  0  0  0  0  0  0  0  0  0  0
   28.7750   25.3280   16.8170 O   0  0  0  0  0  0  0  0  0  0  0  0
   29.0140   26.4630   15.9610 C   0  0  1  0  0  0  0  0  0  0  0  0
   29.2730   25.9010   14.5360 C   0  0  0  0  0  0  0  0  0  0  0  0
   27.7090   27.3420   15.9780 C   0  0  0  0  0  0  0  0  0  0  0  0
   27.9550   28.6070   16.7860 N   0  0  1  0  0  4  0  0  0  0  0  0
   28.4710   28.2790   18.1730 C   0  0  0  0  0  0  0  0  0  0  0  0
   29.8730   27.6920   18.0200 C   0  0  0  0  0  0  0  0  0  0  0  0
   30.1630   27.3700   16.5310 C   0  0  2  0  0  0  0  0  0  0  0  0
   30.1980   28.7270   15.7890 C   0  0  0  0  0  0  0  0  0  0  0  0
   28.9190   29.5240   16.0630 C   0  0  0  0  0  0  0  0  0  0  0  0
   28.5860   23.5090   14.4780 N   0  0  0  0  0  4  0  0  0  0  0  0
   30.3682   24.3110   13.6066 H   0  0  0  0  0  0  0  0  0  0  0  0
   30.8512   23.0416   15.7129 H   0  0  0  0  0  0  0  0  0  0  0  0
   31.5266   24.7225   15.6718 H   0  0  0  0  0  0  0  0  0  0  0  0
   29.5247   23.5137   17.4732 H   0  0  0  0  0  0  0  0  0  0  0  0
   30.6057   24.9604   17.6818 H   0  0  0  0  0  0  0  0  0  0  0  0
   28.3349   25.9630   13.9650 H   0  0  0  0  0  0  0  0  0  0  0  0
   30.0792   26.5082   14.0986 H   0  0  0  0  0  0  0  0  0  0  0  0
   27.4372   27.6133   14.9472 H   0  0  0  0  0  0  0  0  0  0  0  0
   26.8895   26.7695   16.4370 H   0  0  0  0  0  0  0  0  0  0  0  0
   27.0543   29.0958   16.8895 H   0  0  0  0  0  0  0  0  0  0  0  0
   28.5121   29.1932   18.7833 H   0  0  0  0  0  0  0  0  0  0  0  0
   27.8046   27.5600   18.6720 H   0  0  0  0  0  0  0  0  0  0  0  0
   30.6128   28.4199   18.3844 H   0  0  0  0  0  0  0  0  0  0  0  0
   29.9375   26.7632   18.6057 H   0  0  0  0  0  0  0  0  0  0  0  0
   31.1139   26.8313   16.4061 H   0  0  0  0  0  0  0  0  0  0  0  0
   31.0664   29.3064   16.1358 H   0  0  0  0  0  0  0  0  0  0  0  0
   30.2737   28.5384   14.7079 H   0  0  0  0  0  0  0  0  0  0  0  0
   29.1485   30.3975   16.6910 H   0  0  0  0  0  0  0  0  0  0  0  0
   28.4782   29.8834   15.1214 H   0  0  0  0  0  0  0  0  0  0  0  0
   28.3001   23.2817   15.4410 H   0  0  0  0  0  0  0  0  0  0  0  0
   27.8026   23.9605   13.9848 H   0  0  0  0  0  0  0  0  0  0  0  0
   28.8493   22.6440   13.9848 H   0  0  0  0  0  0  0  0  0  0  0  0
  2  1  1  0
  3  2  1  0
  4  3  1  0
  5  4  1  1
  6  5  1  0
  6  1  1  0
  7  5  1  0
  8  7  1  0
  9  8  1  0
 10  9  1  0
 11  5  1  0
 11 10  1  0
 12 11  1  0
 13 12  1  0
 13  8  1  0
 14  1  1  0
  1 15  1  6
  2 16  1  0
  2 17  1  0
  3 18  1  0
  3 19  1  0
  6 20  1  0
  6 21  1  0
  7 22  1  0
  7 23  1  0
  8 24  1  1
  9 25  1  0
  9 26  1  0
 10 27  1  0
 10 28  1  0
 11 29  1  1
 12 30  1  0
 12 31  1  0
 13 32  1  0
 13 33  1  0
 14 34  1  0
 14 35  1  0
 14 36  1  0
M  CHG  2   8   1  14   1
M  END
$$$$
=
     RDKit          3D

 34 34  0  0  0  0  0  0  0  0999 V2000
   19.2080   15.6340    5.1140 N   0  0  0  0  0  0  0  0  0  0  0  0
   18.6290   14.9130    4.0810 C   0  0  0  0  0  0  0  0  0  0  0  0
   19.2800   14.3680    3.1950 O   0  0  0  0  0  0  0  0  0  0  0  0
   17.1100   15.1240    3.9430 C   0  0  2  0  0  0  0  0  0  0  0  0
   16.4580   15.6540    5.2220 C   0  0  0  0  0  0  0  0  0  0  0  0
   15.0230   15.1570    5.4330 C   0  0  0  0  0  0  0  0  0  0  0  0
   14.3300   14.8520    4.1110 C   0  0  0  0  0  0  0  0  0  0  0  0
   15.0570   13.7770    3.3090 C   0  0  0  0  0  0  0  0  0  0  0  0
   16.5050   13.7700    3.6260 N   0  0  0  0  0  4  0  0  0  0  0  0
   20.5290   16.2350    4.8690 C   0  0  2  0  0  0  0  0  0  0  0  0
   21.3270   16.2910    6.1620 C   0  0  0  0  0  0  0  0  0  0  0  0
   20.2500   17.6480    4.3100 C   0  0  0  0  0  0  0  0  0  0  0  0
   19.6160   18.5070    4.9320 O   0  0  0  0  0  0  0  0  0  0  0  0
   19.8180   17.5930    2.0010 C   0  0  0  0  0  0  0  0  0  0  0  0
   20.7570   17.7920    3.0610 O   0  0  0  0  0  0  0  0  0  0  0  0
   18.7310   15.7450    6.0201 H   0  0  0  0  0  0  0  0  0  0  0  0
   16.9329   15.8735    3.1575 H   0  0  0  0  0  0  0  0  0  0  0  0
   17.0664   15.3336    6.0806 H   0  0  0  0  0  0  0  0  0  0  0  0
   16.4088   16.7489    5.1282 H   0  0  0  0  0  0  0  0  0  0  0  0
   15.0493   14.2407    6.0410 H   0  0  0  0  0  0  0  0  0  0  0  0
   14.4569   15.9520    5.9405 H   0  0  0  0  0  0  0  0  0  0  0  0
   13.3069   14.5060    4.3198 H   0  0  0  0  0  0  0  0  0  0  0  0
   14.3285   15.7745    3.5119 H   0  0  0  0  0  0  0  0  0  0  0  0
   14.6297   12.7936    3.5545 H   0  0  0  0  0  0  0  0  0  0  0  0
   14.9325   13.9930    2.2376 H   0  0  0  0  0  0  0  0  0  0  0  0
   16.6481   13.1593    4.4430 H   0  0  0  0  0  0  0  0  0  0  0  0
   16.9797   13.4405    2.7734 H   0  0  0  0  0  0  0  0  0  0  0  0
   21.1286   15.6464    4.1591 H   0  0  0  0  0  0  0  0  0  0  0  0
   20.6397   16.2428    7.0195 H   0  0  0  0  0  0  0  0  0  0  0  0
   22.0222   15.4394    6.2010 H   0  0  0  0  0  0  0  0  0  0  0  0
   21.8965   17.2313    6.2010 H   0  0  0  0  0  0  0  0  0  0  0  0
   18.8252   17.3826    2.4253 H   0  0  0  0  0  0  0  0  0  0  0  0
   19.7670   18.5003    1.3811 H   0  0  0  0  0  0  0  0  0  0  0  0
   20.1395   16.7430    1.3811 H   0  0  0  0  0  0  0  0  0  0  0  0
  2  1  1  0
  3  2  2  0
  4  2  1  0
  5  4  1  0
  6  5  1  0
  7  6  1  0
  8  7  1  0
  9  8  1  0
  9  4  1  0
 10  1  1  0
 11 10  1  0
 12 10  1  0
 13 12  2  0
 15 14  1  0
 15 12  1  0
  1 16  1  0
  4 17  1  6
  5 18  1  0
  5 19  1  0
  6 20  1  0
  6 21  1  0
  7 22  1  0
  7 23  1  0
  8 24  1  0
  8 25  1  0
  9 26  1  0
  9 27  1  0
 10 28  1  6
 11 29  1  0
 11 30  1  0
 11 31  1  0
 14 32  1  0
 14 33  1  0
 14 34  1  0
M  CHG  1   9   1
M  END
$$$$
=
     RDKit          3D

 32 33  0  0  0  0  0  0  0  0999 V2000
   18.9890   15.2150    3.6470 C   0  0  2  0  0  0  0  0  0  0  0  0
   23.1240   18.3170    5.9600 N   0  0  0  0  0  0  0  0  0  0  0  0
   22.0590   17.6230    5.4060 C   0  0  0  0  0  0  0  0  0  0  0  0
   21.8270   16.3920    5.8760 N   0  0  0  0  0  0  0  0  0  0  0  0
   20.8190   15.6850    5.3260 C   0  0  0  0  0  0  0  0  0  0  0  0
   20.0200   16.1290    4.2710 C   0  0  0  0  0  0  0  0  0  0  0  0
   20.2850   17.4240    3.7810 C   0  0  0  0  0  0  0  0  0  0  0  0
   21.3180   18.1680    4.3710 C   0  0  0  0  0  0  0  0  0  0  0  0
   19.5000   18.0540    2.6630 C   0  0  0  0  0  0  0  0  0  0  0  0
   17.6090   15.2600    4.2820 C   0  0  0  0  0  0  0  0  0  0  0  0
   17.3810   15.7120    5.5960 C   0  0  0  0  0  0  0  0  0  0  0  0
   16.0880   15.7380    6.1250 C   0  0  0  0  0  0  0  0  0  0  0  0
   15.0070   15.3220    5.3550 C   0  0  0  0  0  0  0  0  0  0  0  0
   15.2100   14.8840    4.0500 C   0  0  0  0  0  0  0  0  0  0  0  0
   16.4990   14.8550    3.5150 C   0  0  0  0  0  0  0  0  0  0  0  0
   19.5330   13.8310    3.5450 N   0  0  0  0  0  4  0  0  0  0  0  0
   18.8051   15.6061    2.6355 H   0  0  0  0  0  0  0  0  0  0  0  0
   23.3446   19.2685    5.6330 H   0  0  0  0  0  0  0  0  0  0  0  0
   23.6944   17.8811    6.6985 H   0  0  0  0  0  0  0  0  0  0  0  0
   20.6114   14.6866    5.7384 H   0  0  0  0  0  0  0  0  0  0  0  0
   21.5391   19.1838    4.0115 H   0  0  0  0  0  0  0  0  0  0  0  0
   18.7076   18.6900    3.0844 H   0  0  0  0  0  0  0  0  0  0  0  0
   20.1714   18.6668    2.0435 H   0  0  0  0  0  0  0  0  0  0  0  0
   19.0471   17.2659    2.0435 H   0  0  0  0  0  0  0  0  0  0  0  0
   18.2285   16.0477    6.2116 H   0  0  0  0  0  0  0  0  0  0  0  0
   15.9244   16.0889    7.1546 H   0  0  0  0  0  0  0  0  0  0  0  0
   13.9916   15.3393    5.7777 H   0  0  0  0  0  0  0  0  0  0  0  0
   14.3541   14.5604    3.4395 H   0  0  0  0  0  0  0  0  0  0  0  0
   16.6500   14.5114    2.4810 H   0  0  0  0  0  0  0  0  0  0  0  0
   19.6826   13.4504    4.4903 H   0  0  0  0  0  0  0  0  0  0  0  0
   18.8635   13.2355    3.0371 H   0  0  0  0  0  0  0  0  0  0  0  0
   20.4288   13.8508    3.0371 H   0  0  0  0  0  0  0  0  0  0  0  0
  3  2  1  0
  4  3  2  0
  5  4  1  0
  6  5  2  0
  6  1  1  0
  7  6  1  0
  8  7  2  0
  8  3  1  0
  9  7  1  0
 10  1  1  0
 11 10  2  0
 12 11  1  0
 13 12  2  0
 14 13  1  0
 15 14  2  0
 15 10  1  0
 16  1  1  0
  1 17  1  6
  2 18  1  0
  2 19  1  0
  5 20  1  0
  8 21  1  0
  9 22  1  0
  9 23  1  0
  9 24  1  0
 11 25  1  0
 12 26  1  0
 13 27  1  0
 14 28  1  0
 15 29  1  0
 16 30  1  0
 16 31  1  0
 16 32  1  0
M  CHG  1  16   1
M  END
$$$$
=
     RDKit          3D

 31 32  0  0  0  0  0  0  0  0999 V2000
   17.8330   14.4940    3.8870 C   0  0  0  0  0  0  0  0  0  0  0  0
   18.4710   13.4080    3.3050 C   0  0  0  0  0  0  0  0  0  0  0  0
   17.5350   12.5390    2.8200 N   0  0  0  0  0  0  0  0  0  0  0  0
   16.2760   12.9910    3.1280 C   0  0  0  0  0  0  0  0  0  0  0  0
   16.4150   14.2290    3.7640 C   0  0  0  0  0  0  0  0  0  0  0  0
   15.2250   14.8940    4.1390 C   0  0  0  0  0  0  0  0  0  0  0  0
   13.9770   14.3090    3.8850 C   0  0  0  0  0  0  0  0  0  0  0  0
   13.8870   13.0720    3.2620 C   0  0  0  0  0  0  0  0  0  0  0  0
   15.0380   12.3920    2.8670 C   0  0  0  0  0  0  0  0  0  0  0  0
   18.5600   15.6560    4.5750 C   0  0  0  0  0  0  0  0  0  0  0  0
   17.7760   16.2650    5.7530 C   0  0  0  0  0  0  0  0  0  0  0  0
   18.7960   16.8190    3.5760 C   0  0  0  0  0  0  0  0  0  0  0  0
   19.9540   15.1660    5.0640 C   0  0  0  0  0  0  0  0  0  0  0  0
   19.9150   14.6630    6.4680 N   0  0  0  0  0  4  0  0  0  0  0  0
   19.5604   13.2685    3.2437 H   0  0  0  0  0  0  0  0  0  0  0  0
   17.7429   11.6740    2.3009 H   0  0  0  0  0  0  0  0  0  0  0  0
   15.2789   15.8755    4.6326 H   0  0  0  0  0  0  0  0  0  0  0  0
   13.0586   14.8361    4.1827 H   0  0  0  0  0  0  0  0  0  0  0  0
   12.8991   12.6244    3.0784 H   0  0  0  0  0  0  0  0  0  0  0  0
   14.9754   11.4149    2.3657 H   0  0  0  0  0  0  0  0  0  0  0  0
   18.2157   15.9235    6.7017 H   0  0  0  0  0  0  0  0  0  0  0  0
   17.8272   17.3625    5.6992 H   0  0  0  0  0  0  0  0  0  0  0  0
   16.7253   15.9439    5.6992 H   0  0  0  0  0  0  0  0  0  0  0  0
   18.9846   17.7485    4.1333 H   0  0  0  0  0  0  0  0  0  0  0  0
   19.6656   16.5880    2.9432 H   0  0  0  0  0  0  0  0  0  0  0  0
   17.9052   16.9452    2.9432 H   0  0  0  0  0  0  0  0  0  0  0  0
   20.2943   14.3529    4.4059 H   0  0  0  0  0  0  0  0  0  0  0  0
   20.6430   16.0228    5.0317 H   0  0  0  0  0  0  0  0  0  0  0  0
   19.9767   15.4584    7.1195 H   0  0  0  0  0  0  0  0  0  0  0  0
   19.0322   14.1567    6.6269 H   0  0  0  0  0  0  0  0  0  0  0  0
   20.7092   14.0267    6.6269 H   0  0  0  0  0  0  0  0  0  0  0  0
  2  1  2  0
  3  2  1  0
  4  3  1  0
  5  4  2  0
  5  1  1  0
  6  5  1  0
  7  6  2  0
  8  7  1  0
  9  8  2  0
  9  4  1  0
 10  1  1  0
 11 10  1  0
 12 10  1  0
 13 10  1  0
 14 13  1  0
  2 15  1  0
  3 16  1  0
  6 17  1  0
  7 18  1  0
  8 19  1  0
  9 20  1  0
 11 21  1  0
 11 22  1  0
 11 23  1  0
 12 24  1  0
 12 25  1  0
 12 26  1  0
 13 27  1  0
 13 28  1  0
 14 29  1  0
 14 30  1  0
 14 31  1  0
M  CHG  1  14   1
M  END
$$$$
=
     RDKit          3D

 52 53  0  0  0  0  0  0  0  0999 V2000
   16.3440   15.2230    4.1360 C   0  0  0  0  0  0  0  0  0  0  0  0
   15.0580   14.5090    3.6850 C   0  0  1  0  0  0  0  0  0  0  0  0
   15.4430   13.0990    3.1180 C   0  0  0  0  0  0  0  0  0  0  0  0
   14.2290   12.2760    2.7690 N   0  0  0  0  0  4  0  0  0  0  0  0
   13.2220   12.1880    3.8930 C   0  0  0  0  0  0  0  0  0  0  0  0
   12.8820   13.5650    4.4790 C   0  0  0  0  0  0  0  0  0  0  0  0
   14.0980   14.3920    4.8500 N   0  0  0  0  0  4  0  0  0  0  0  0
   11.7770   14.3220    3.6980 C   0  0  0  0  0  0  0  0  0  0  0  0
   10.7780   13.7920    4.6030 O   0  0  0  0  0  0  0  0  0  0  0  0
   11.8020   13.5010    5.5860 C   0  0  0  0  0  0  0  0  0  0  0  0
   16.2470   16.3300    5.1940 C   0  0  0  0  0  0  0  0  0  0  0  0
   17.4020   16.3960    6.2050 C   0  0  0  0  0  0  0  0  0  0  0  0
   18.4890   15.3280    6.0800 C   0  0  0  0  0  0  0  0  0  0  0  0
   21.1340   15.5970    7.1400 O   0  0  0  0  0  0  0  0  0  0  0  0
   20.8920   15.9450    5.9860 C   0  0  0  0  0  0  0  0  0  0  0  0
   19.6740   15.7990    5.4060 N   0  0  0  0  0  0  0  0  0  0  0  0
   21.7450   16.4960    5.1070 O   0  0  0  0  0  0  0  0  0  0  0  0
   21.7590   17.9230    4.8350 C   0  0  0  0  0  0  0  0  0  0  0  0
   23.1910   18.3750    5.1540 C   0  0  0  0  0  0  0  0  0  0  0  0
   20.7860   18.6690    5.7550 C   0  0  0  0  0  0  0  0  0  0  0  0
   21.4690   18.1960    3.3550 C   0  0  0  0  0  0  0  0  0  0  0  0
   17.0175   14.4514    4.5373 H   0  0  0  0  0  0  0  0  0  0  0  0
   16.6844   15.7500    3.2325 H   0  0  0  0  0  0  0  0  0  0  0  0
   14.5542   15.0862    2.8957 H   0  0  0  0  0  0  0  0  0  0  0  0
   16.0513   13.2354    2.2117 H   0  0  0  0  0  0  0  0  0  0  0  0
   16.0028   12.5621    3.8980 H   0  0  0  0  0  0  0  0  0  0  0  0
   13.7696   12.7017    1.9513 H   0  0  0  0  0  0  0  0  0  0  0  0
   14.5552   11.3182    2.5764 H   0  0  0  0  0  0  0  0  0  0  0  0
   12.2994   11.7304    3.5065 H   0  0  0  0  0  0  0  0  0  0  0  0
   13.6657   11.5807    4.6957 H   0  0  0  0  0  0  0  0  0  0  0  0
   13.7907   15.3350    5.1279 H   0  0  0  0  0  0  0  0  0  0  0  0
   14.5851   13.9243    5.6278 H   0  0  0  0  0  0  0  0  0  0  0  0
   11.8751   15.4172    3.7283 H   0  0  0  0  0  0  0  0  0  0  0  0
   11.6715   14.1890    2.6112 H   0  0  0  0  0  0  0  0  0  0  0  0
   11.9098   14.2713    6.3638 H   0  0  0  0  0  0  0  0  0  0  0  0
   11.7182   12.6144    6.2318 H   0  0  0  0  0  0  0  0  0  0  0  0
   16.2037   17.2954    4.6685 H   0  0  0  0  0  0  0  0  0  0  0  0
   15.3479   16.0992    5.7843 H   0  0  0  0  0  0  0  0  0  0  0  0
   17.8856   17.3777    6.0942 H   0  0  0  0  0  0  0  0  0  0  0  0
   16.9365   16.2197    7.1859 H   0  0  0  0  0  0  0  0  0  0  0  0
   18.7702   14.9956    7.0902 H   0  0  0  0  0  0  0  0  0  0  0  0
   18.0735   14.5081    5.4757 H   0  0  0  0  0  0  0  0  0  0  0  0
   19.5893   16.0430    4.4089 H   0  0  0  0  0  0  0  0  0  0  0  0
   23.3275   18.4181    6.2446 H   0  0  0  0  0  0  0  0  0  0  0  0
   23.9061   17.6589    4.7230 H   0  0  0  0  0  0  0  0  0  0  0  0
   23.3654   19.3719    4.7230 H   0  0  0  0  0  0  0  0  0  0  0  0
   21.0472   18.4687    6.8046 H   0  0  0  0  0  0  0  0  0  0  0  0
   20.8527   19.7496    5.5603 H   0  0  0  0  0  0  0  0  0  0  0  0
   19.7598   18.3241    5.5603 H   0  0  0  0  0  0  0  0  0  0  0  0
   20.6704   18.9478    3.2704 H   0  0  0  0  0  0  0  0  0  0  0  0
   22.3798   18.5721    2.8662 H   0  0  0  0  0  0  0  0  0  0  0  0
   21.1486   17.2641    2.8662 H   0  0  0  0  0  0  0  0  0  0  0  0
  2  1  1  0
  3  2  1  0
  4  3  1  0
  5  4  1  0
  6  5  1  0
  7  6  1  0
  7  2  1  0
  8  6  1  0
  9  8  1  0
 10  9  1  0
 10  6  1  0
 11  1  1  0
 12 11  1  0
 13 12  1  0
 15 14  2  0
 16 15  1  0
 16 13  1  0
 17 15  1  0
 18 17  1  0
 19 18  1  0
 20 18  1  0
 21 18  1  0
  1 22  1  0
  1 23  1  0
  2 24  1  6
  3 25  1  0
  3 26  1  0
  4 27  1  0
  4 28  1  0
  5 29  1  0
  5 30  1  0
  7 31  1  0
  7 32  1  0
  8 33  1  0
  8 34  1  0
 10 35  1  0
 10 36  1  0
 11 37  1  0
 11 38  1  0
 12 39  1  0
 12 40  1  0
 13 41  1  0
 13 42  1  0
 16 43  1  0
 19 44  1  0
 19 45  1  0
 19 46  1  0
 20 47  1  0
 20 48  1  0
 20 49  1  0
 21 50  1  0
 21 51  1  0
 21 52  1  0
M  CHG  2   4   1   7   1
M  END
$$$$
=
     RDKit          3D

 40 42  0  0  0  0  0  0  0  0999 V2000
   18.1010   14.7970    3.6450 C   0  0  0  0  0  0  0  0  0  0  0  0
   18.6780   13.6050    3.3850 N   0  0  0  0  0  0  0  0  0  0  0  0
   17.8710   12.5600    3.2160 C   0  0  0  0  0  0  0  0  0  0  0  0
   18.4560   11.3440    2.9280 N   0  0  0  0  0  0  0  0  0  0  0  0
   16.5400   12.6070    3.2600 N   0  0  0  0  0  0  0  0  0  0  0  0
   15.9690   13.8000    3.5260 C   0  0  0  0  0  0  0  0  0  0  0  0
   16.7300   14.9320    3.7420 C   0  0  0  0  0  0  0  0  0  0  0  0
   14.4920   13.8050    3.5750 C   0  0  0  0  0  0  0  0  0  0  0  0
   13.7980   14.7960    4.3000 C   0  0  0  0  0  0  0  0  0  0  0  0
   12.4010   14.8230    4.3600 C   0  0  0  0  0  0  0  0  0  0  0  0
   11.6620   13.8500    3.6950 C   0  0  0  0  0  0  0  0  0  0  0  0
   12.3290   12.8620    2.9840 C   0  0  0  0  0  0  0  0  0  0  0  0
   13.7210   12.8290    2.9200 C   0  0  0  0  0  0  0  0  0  0  0  0
   11.6210   11.9170    2.3490 F   0  0  0  0  0  0  0  0  0  0  0  0
   19.5980   16.2420    5.1160 C   0  0  0  0  0  0  0  0  0  0  0  0
   20.5040   17.3120    5.2400 C   0  0  0  0  0  0  0  0  0  0  0  0
   20.8390   18.0950    4.1350 C   0  0  0  0  0  0  0  0  0  0  0  0
   20.2680   17.8070    2.8990 C   0  0  0  0  0  0  0  0  0  0  0  0
   19.3800   16.7380    2.7620 C   0  0  0  0  0  0  0  0  0  0  0  0
   19.0360   15.9240    3.8570 C   0  0  0  0  0  0  0  0  0  0  0  0
   20.2290   14.6300    6.7620 C   0  0  0  0  0  0  0  0  0  0  0  0
   19.2240   15.4510    6.1780 O   0  0  0  0  0  0  0  0  0  0  0  0
   21.7000   19.1580    4.1300 O   0  0  0  0  0  0  0  0  0  0  0  0
   22.9650   18.9730    4.7490 C   0  0  0  0  0  0  0  0  0  0  0  0
   17.8682   10.5096    2.7897 H   0  0  0  0  0  0  0  0  0  0  0  0
   19.4805   11.2707    2.8513 H   0  0  0  0  0  0  0  0  0  0  0  0
   16.2642   15.8994    3.9810 H   0  0  0  0  0  0  0  0  0  0  0  0
   14.3713   15.5689    4.8329 H   0  0  0  0  0  0  0  0  0  0  0  0
   11.8883   15.6110    4.9311 H   0  0  0  0  0  0  0  0  0  0  0  0
   10.5627   13.8634    3.7322 H   0  0  0  0  0  0  0  0  0  0  0  0
   14.2212   12.0313    2.3513 H   0  0  0  0  0  0  0  0  0  0  0  0
   20.9531   17.5334    6.2194 H   0  0  0  0  0  0  0  0  0  0  0  0
   20.5178   18.4254    2.0243 H   0  0  0  0  0  0  0  0  0  0  0  0
   18.9397   16.5276    1.7762 H   0  0  0  0  0  0  0  0  0  0  0  0
   20.1583   14.6877    7.8582 H   0  0  0  0  0  0  0  0  0  0  0  0
   20.0845   13.5883    6.4396 H   0  0  0  0  0  0  0  0  0  0  0  0
   21.2210   14.9794    6.4396 H   0  0  0  0  0  0  0  0  0  0  0  0
   22.8443   18.9906    5.8422 H   0  0  0  0  0  0  0  0  0  0  0  0
   23.3852   18.0039    4.4421 H   0  0  0  0  0  0  0  0  0  0  0  0
   23.6451   19.7812    4.4421 H   0  0  0  0  0  0  0  0  0  0  0  0
  2  1  2  0
  3  2  1  0
  4  3  1  0
  5  3  2  0
  6  5  1  0
  7  6  2  0
  7  1  1  0
  8  6  1  0
  9  8  2  0
 10  9  1  0
 11 10  2  0
 12 11  1  0
 13 12  2  0
 13  8  1  0
 14 12  1  0
 16 15  2  0
 17 16  1  0
 18 17  2  0
 19 18  1  0
 20 15  1  0
 20  1  1  0
 20 19  2  0
 22 15  1  0
 22 21  1  0
 23 17  1  0
 24 23  1  0
  4 25  1  0
  4 26  1  0
  7 27  1  0
  9 28  1  0
 10 29  1  0
 11 30  1  0
 13 31  1  0
 16 32  1  0
 18 33  1  0
 19 34  1  0
 21 35  1  0
 21 36  1  0
 21 37  1  0
 24 38  1  0
 24 39  1  0
 24 40  1  0
M  END
$$$$
=
     RDKit          3D

 37 37  0  0  0  0  0  0  0  0999 V2000
   18.4390   15.1260    4.5980 C   0  0  1  0  0  0  0  0  0  0  0  0
   18.7300   15.1980    6.1160 C   0  0  0  0  0  0  0  0  0  0  0  0
   20.0820   14.7130    6.4990 N   0  0  0  0  0  4  0  0  0  0  0  0
   17.0510   15.7040    4.1980 C   0  0  1  0  0  0  0  0  0  0  0  0
   15.9470   14.7120    3.9170 C   0  0  0  0  0  0  0  0  0  0  0  0
   14.6690   14.9310    4.4620 C   0  0  0  0  0  0  0  0  0  0  0  0
   13.6190   14.0520    4.1980 C   0  0  0  0  0  0  0  0  0  0  0  0
   13.8320   12.9300    3.4040 C   0  0  0  0  0  0  0  0  0  0  0  0
   15.1010   12.6770    2.8890 C   0  0  0  0  0  0  0  0  0  0  0  0
   16.1550   13.5550    3.1510 C   0  0  0  0  0  0  0  0  0  0  0  0
   16.6120   16.6340    5.1750 O   0  0  0  0  0  0  0  0  0  0  0  0
   19.6120   15.7710    3.8020 C   0  0  0  0  0  0  0  0  0  0  0  0
   19.3570   17.2270    3.4130 N   0  0  0  0  0  4  0  0  0  0  0  0
   19.7380   17.4740    1.9640 C   0  0  0  0  0  0  0  0  0  0  0  0
   20.0720   18.2340    4.2910 C   0  0  0  0  0  0  0  0  0  0  0  0
   18.3762   14.0620    4.3259 H   0  0  0  0  0  0  0  0  0  0  0  0
   18.6355   16.2460    6.4364 H   0  0  0  0  0  0  0  0  0  0  0  0
   18.0039   14.5354    6.6097 H   0  0  0  0  0  0  0  0  0  0  0  0
   20.1588   14.6855    7.5258 H   0  0  0  0  0  0  0  0  0  0  0  0
   20.2280   13.7671    6.1183 H   0  0  0  0  0  0  0  0  0  0  0  0
   20.7960   15.3503    6.1183 H   0  0  0  0  0  0  0  0  0  0  0  0
   17.2408   16.1810    3.2252 H   0  0  0  0  0  0  0  0  0  0  0  0
   14.4955   15.8067    5.1046 H   0  0  0  0  0  0  0  0  0  0  0  0
   12.6211   14.2462    4.6182 H   0  0  0  0  0  0  0  0  0  0  0  0
   13.0005   12.2445    3.1835 H   0  0  0  0  0  0  0  0  0  0  0  0
   15.2738   11.7820    2.2733 H   0  0  0  0  0  0  0  0  0  0  0  0
   17.1572   13.3375    2.7533 H   0  0  0  0  0  0  0  0  0  0  0  0
   16.7843   16.2690    6.0790 H   0  0  0  0  0  0  0  0  0  0  0  0
   20.5185   15.7304    4.4237 H   0  0  0  0  0  0  0  0  0  0  0  0
   19.7210   15.2008    2.8676 H   0  0  0  0  0  0  0  0  0  0  0  0
   18.3461   17.3695    3.5497 H   0  0  0  0  0  0  0  0  0  0  0  0
   20.6604   18.0720    1.9242 H   0  0  0  0  0  0  0  0  0  0  0  0
   19.9034   16.5108    1.4591 H   0  0  0  0  0  0  0  0  0  0  0  0
   18.9262   18.0181    1.4591 H   0  0  0  0  0  0  0  0  0  0  0  0
   19.8971   17.9877    5.3487 H   0  0  0  0  0  0  0  0  0  0  0  0
   21.1513   18.2027    4.0808 H   0  0  0  0  0  0  0  0  0  0  0  0
   19.6866   19.2426    4.0808 H   0  0  0  0  0  0  0  0  0  0  0  0
  2  1  1  0
  3  2  1  0
  4  1  1  0
  5  4  1  0
  6  5  2  0
  7  6  1  0
  8  7  2  0
  9  8  1  0
 10  9  2  0
 10  5  1  0
 11  4  1  0
 12  1  1  0
 13 12  1  0
 14 13  1  0
 15 13  1  0
  1 16  1  6
  2 17  1  0
  2 18  1  0
  3 19  1  0
  3 20  1  0
  3 21  1  0
  4 22  1  6
  6 23  1  0
  7 24  1  0
  8 25  1  0
  9 26  1  0
 10 27  1  0
 11 28  1  0
 12 29  1  0
 12 30  1  0
 13 31  1  0
 14 32  1  0
 14 33  1  0
 14 34  1  0
 15 35  1  0
 15 36  1  0
 15 37  1  0
M  CHG  2   3   1  13   1
M  END
$$$$
=
     RDKit          3D

 33 33  0  0  0  0  0  0  0  0999 V2000
   16.2810   15.0030    3.7490 N   0  0  0  0  0  4  0  0  0  0  0  0
   16.6040   13.6010    3.2460 C   0  0  0  0  0  0  0  0  0  0  0  0
   15.4170   12.9250    2.5710 C   0  0  0  0  0  0  0  0  0  0  0  0
   14.3930   12.3840    3.5620 C   0  0  0  0  0  0  0  0  0  0  0  0
   13.3410   13.3920    4.0060 C   0  0  0  0  0  0  0  0  0  0  0  0
   13.8080   14.8290    4.2090 C   0  0  0  0  0  0  0  0  0  0  0  0
   15.1840   14.9800    4.8400 C   0  0  0  0  0  0  0  0  0  0  0  0
   17.5190   15.7260    4.3110 C   0  0  0  0  0  0  0  0  0  0  0  0
   19.1820   15.0350    6.0940 C   0  0  0  0  0  0  0  0  0  0  0  0
   18.7470   14.8180    4.6470 C   0  0  2  0  0  0  0  0  0  0  0  0
   19.9410   15.0960    3.7750 N   0  0  0  0  0  4  0  0  0  0  0  0
   15.9398   15.5202    2.9262 H   0  0  0  0  0  0  0  0  0  0  0  0
   17.4280   13.6696    2.5205 H   0  0  0  0  0  0  0  0  0  0  0  0
   16.8777   12.9917    4.1200 H   0  0  0  0  0  0  0  0  0  0  0  0
   14.9199   13.6592    1.9199 H   0  0  0  0  0  0  0  0  0  0  0  0
   15.8076   12.0679    2.0028 H   0  0  0  0  0  0  0  0  0  0  0  0
   13.8763   11.5347    3.0911 H   0  0  0  0  0  0  0  0  0  0  0  0
   14.9541   12.1030    4.4654 H   0  0  0  0  0  0  0  0  0  0  0  0
   12.5489   13.4042    3.2428 H   0  0  0  0  0  0  0  0  0  0  0  0
   13.0178   13.0513    5.0007 H   0  0  0  0  0  0  0  0  0  0  0  0
   13.8285   15.3222    3.2260 H   0  0  0  0  0  0  0  0  0  0  0  0
   13.0972   15.2842    4.9144 H   0  0  0  0  0  0  0  0  0  0  0  0
   15.2199   15.9205    5.4093 H   0  0  0  0  0  0  0  0  0  0  0  0
   15.3647   14.1251    5.5082 H   0  0  0  0  0  0  0  0  0  0  0  0
   17.8425   16.4683    3.5665 H   0  0  0  0  0  0  0  0  0  0  0  0
   17.1997   16.1611    5.2695 H   0  0  0  0  0  0  0  0  0  0  0  0
   18.4068   14.6483    6.7718 H   0  0  0  0  0  0  0  0  0  0  0  0
   20.1273   14.5029    6.2764 H   0  0  0  0  0  0  0  0  0  0  0  0
   19.3254   16.1102    6.2764 H   0  0  0  0  0  0  0  0  0  0  0  0
   18.4130   13.7846    4.4723 H   0  0  0  0  0  0  0  0  0  0  0  0
   20.7617   15.2871    4.3673 H   0  0  0  0  0  0  0  0  0  0  0  0
   20.1301   14.2765    3.1803 H   0  0  0  0  0  0  0  0  0  0  0  0
   19.7487   15.9147    3.1803 H   0  0  0  0  0  0  0  0  0  0  0  0
  2  1  1  0
  3  2  1  0
  4  3  1  0
  5  4  1  0
  6  5  1  0
  7  6  1  0
  7  1  1  0
  8  1  1  0
 10  8  1  0
 10  9  1  0
 11 10  1  0
  1 12  1  0
  2 13  1  0
  2 14  1  0
  3 15  1  0
  3 16  1  0
  4 17  1  0
  4 18  1  0
  5 19  1  0
  5 20  1  0
  6 21  1  0
  6 22  1  0
  7 23  1  0
  7 24  1  0
  8 25  1  0
  8 26  1  0
  9 27  1  0
  9 28  1  0
  9 29  1  0
 10 30  1  1
 11 31  1  0
 11 32  1  0
 11 33  1  0
M  CHG  2   1   1  11   1
M  END
$$$$
=
     RDKit          3D

 51 53  0  0  0  0  0  0  0  0999 V2000
   18.7410   24.4620    9.9070 C   0  0  0  0  0  0  0  0  0  0  0  0
   18.5190   23.3890    9.3390 O   0  0  0  0  0  0  0  0  0  0  0  0
   19.9920   24.8660   10.3370 N   0  0  0  0  0  0  0  0  0  0  0  0
   21.1320   23.9790   10.0950 C   0  0  0  0  0  0  0  0  0  0  0  0
   21.5300   23.1970   11.3380 C   0  0  0  0  0  0  0  0  0  0  0  0
   21.5910   24.0180   12.6200 C   0  0  0  0  0  0  0  0  0  0  0  0
   22.3090   25.3170   12.5110 N   0  0  0  0  0  0  0  0  0  0  0  0
   21.6600   26.3790   11.6360 C   0  0  1  0  0  0  0  0  0  0  0  0
   20.2100   26.0590   11.1760 C   0  0  0  0  0  0  0  0  0  0  0  0
   21.6150   27.7020   12.4080 C   0  0  0  0  0  0  0  0  0  0  0  0
   24.0260   25.2320   12.2950 S   0  0  0  0  0  6  0  0  0  0  0  0
   24.3280   23.8130   12.3520 O   0  0  0  0  0  0  0  0  0  0  0  0
   24.3930   25.9770   11.1150 O   0  0  0  0  0  0  0  0  0  0  0  0
   24.7510   26.0140   13.7370 C   0  0  0  0  0  0  0  0  0  0  0  0
   23.8430   26.1490   14.8130 C   0  0  0  0  0  0  0  0  0  0  0  0
   24.1760   26.8680   15.9460 C   0  0  0  0  0  0  0  0  0  0  0  0
   25.4150   27.4770   16.0100 C   0  0  0  0  0  0  0  0  0  0  0  0
   26.3490   27.3390   14.9720 C   0  0  0  0  0  0  0  0  0  0  0  0
   26.0910   26.5620   13.8020 C   0  0  0  0  0  0  0  0  0  0  0  0
   27.2150   26.4550   12.8990 C   0  0  0  0  0  0  0  0  0  0  0  0
   27.2880   25.5590   11.7010 C   0  0  0  0  0  0  0  0  0  0  0  0
   28.3880   27.1750   13.1700 C   0  0  0  0  0  0  0  0  0  0  0  0
   28.5800   27.9590   14.2380 N   0  0  0  0  0  0  0  0  0  0  0  0
   27.5700   27.9950   15.1210 C   0  0  0  0  0  0  0  0  0  0  0  0
   17.5480   25.3950   10.1310 C   0  0  0  0  0  0  0  0  0  0  0  0
   17.3340   26.2310    8.9050 N   0  0  0  0  0  4  0  0  0  0  0  0
   20.8639   23.2673    9.3003 H   0  0  0  0  0  0  0  0  0  0  0  0
   21.9884   24.6043    9.8026 H   0  0  0  0  0  0  0  0  0  0  0  0
   20.7967   22.3901   11.4835 H   0  0  0  0  0  0  0  0  0  0  0  0
   22.5512   22.8299   11.1578 H   0  0  0  0  0  0  0  0  0  0  0  0
   20.5592   24.2260   12.9395 H   0  0  0  0  0  0  0  0  0  0  0  0
   22.1628   23.4144   13.3402 H   0  0  0  0  0  0  0  0  0  0  0  0
   22.2804   26.4260   10.7289 H   0  0  0  0  0  0  0  0  0  0  0  0
   19.8492   26.9283   10.6067 H   0  0  0  0  0  0  0  0  0  0  0  0
   19.6708   25.8381   12.1090 H   0  0  0  0  0  0  0  0  0  0  0  0
   21.6220   27.4964   13.4886 H   0  0  0  0  0  0  0  0  0  0  0  0
   22.4930   28.3102   12.1448 H   0  0  0  0  0  0  0  0  0  0  0  0
   20.6977   28.2491   12.1448 H   0  0  0  0  0  0  0  0  0  0  0  0
   22.8535   25.6731   14.7472 H   0  0  0  0  0  0  0  0  0  0  0  0
   23.4667   26.9539   16.7824 H   0  0  0  0  0  0  0  0  0  0  0  0
   25.6739   28.0816   16.8917 H   0  0  0  0  0  0  0  0  0  0  0  0
   27.3732   24.5129   12.0302 H   0  0  0  0  0  0  0  0  0  0  0  0
   26.3770   25.6801   11.0965 H   0  0  0  0  0  0  0  0  0  0  0  0
   28.1674   25.8260   11.0965 H   0  0  0  0  0  0  0  0  0  0  0  0
   29.2142   27.0887   12.4490 H   0  0  0  0  0  0  0  0  0  0  0  0
   27.7173   28.5893   16.0348 H   0  0  0  0  0  0  0  0  0  0  0  0
   16.6464   24.7970   10.3296 H   0  0  0  0  0  0  0  0  0  0  0  0
   17.7493   26.0494   10.9920 H   0  0  0  0  0  0  0  0  0  0  0  0
   17.0881   27.1917    9.1832 H   0  0  0  0  0  0  0  0  0  0  0  0
   18.1982   26.2464    8.3448 H   0  0  0  0  0  0  0  0  0  0  0  0
   16.5687   25.8292    8.3448 H   0  0  0  0  0  0  0  0  0  0  0  0
  2  1  2  0
  3  1  1  0
  4  3  1  0
  5  4  1  0
  6  5  1  0
  7  6  1  0
  8  7  1  0
  9  3  1  0
  9  8  1  0
 10  8  1  0
 11  7  1  0
 12 11  2  0
 13 11  2  0
 14 11  1  0
 15 14  2  0
 16 15  1  0
 17 16  2  0
 18 17  1  0
 19 14  1  0
 19 18  2  0
 20 19  1  0
 21 20  1  0
 22 20  2  0
 23 22  1  0
 24 18  1  0
 24 23  2  0
 25  1  1  0
 26 25  1  0
  4 27  1  0
  4 28  1  0
  5 29  1  0
  5 30  1  0
  6 31  1  0
  6 32  1  0
  8 33  1  6
  9 34  1  0
  9 35  1  0
 10 36  1  0
 10 37  1  0
 10 38  1  0
 15 39  1  0
 16 40  1  0
 17 41  1  0
 21 42  1  0
 21 43  1  0
 21 44  1  0
 22 45  1  0
 24 46  1  0
 25 47  1  0
 25 48  1  0
 26 49  1  0
 26 50  1  0
 26 51  1  0
M  CHG  1  26   1
M  END
$$$$
=
     RDKit          3D

 30 30  0  0  0  0  0  0  0  0999 V2000
   14.5650   13.9380    3.8460 C   0  0  0  0  0  0  0  0  0  0  0  0
   15.6910   13.4140    3.1860 C   0  0  0  0  0  0  0  0  0  0  0  0
   16.9490   14.0060    3.3340 C   0  0  0  0  0  0  0  0  0  0  0  0
   17.0870   15.1350    4.1420 C   0  0  0  0  0  0  0  0  0  0  0  0
   15.9850   15.6680    4.8120 C   0  0  0  0  0  0  0  0  0  0  0  0
   14.7290   15.0730    4.6620 C   0  0  0  0  0  0  0  0  0  0  0  0
   18.7050   15.8310    4.4140 S   0  0  0  0  0  6  0  0  0  0  0  0
   19.6040   15.1650    3.4920 O   0  0  0  0  0  0  0  0  0  0  0  0
   18.5460   17.2720    4.3940 O   0  0  0  0  0  0  0  0  0  0  0  0
   19.1090   15.3260    6.0650 C   0  0  0  0  0  0  0  0  0  0  0  0
   13.2340   13.2230    3.7270 C   0  0  1  0  0  0  0  0  0  0  0  0
   13.4630   11.7530    3.7200 N   0  0  0  0  0  4  0  0  0  0  0  0
   10.9840   14.2940    4.2990 C   0  0  0  0  0  0  0  0  0  0  0  0
   12.2270   13.5870    4.8290 C   0  0  0  0  0  0  0  0  0  0  0  0
   15.5805   12.5269    2.5450 H   0  0  0  0  0  0  0  0  0  0  0  0
   17.8237   13.5846    2.8170 H   0  0  0  0  0  0  0  0  0  0  0  0
   16.1042   16.5523    5.4552 H   0  0  0  0  0  0  0  0  0  0  0  0
   13.8600   15.4962    5.1871 H   0  0  0  0  0  0  0  0  0  0  0  0
   18.5893   15.9756    6.7847 H   0  0  0  0  0  0  0  0  0  0  0  0
   18.7928   14.2835    6.2173 H   0  0  0  0  0  0  0  0  0  0  0  0
   20.1955   15.4056    6.2173 H   0  0  0  0  0  0  0  0  0  0  0  0
   12.7833   13.5572    2.7808 H   0  0  0  0  0  0  0  0  0  0  0  0
   13.5165   11.4093    4.6895 H   0  0  0  0  0  0  0  0  0  0  0  0
   12.6845   11.2866    3.2328 H   0  0  0  0  0  0  0  0  0  0  0  0
   14.3465   11.5455    3.2328 H   0  0  0  0  0  0  0  0  0  0  0  0
   10.3719   14.6422    5.1440 H   0  0  0  0  0  0  0  0  0  0  0  0
   11.2858   15.1556    3.6853 H   0  0  0  0  0  0  0  0  0  0  0  0
   10.3977   13.5942    3.6853 H   0  0  0  0  0  0  0  0  0  0  0  0
   12.7247   14.2502    5.5518 H   0  0  0  0  0  0  0  0  0  0  0  0
   11.8949   12.6458    5.2914 H   0  0  0  0  0  0  0  0  0  0  0  0
  2  1  2  0
  3  2  1  0
  4  3  2  0
  5  4  1  0
  6  5  2  0
  6  1  1  0
  7  4  1  0
  8  7  2  0
  9  7  2  0
 10  7  1  0
 11  1  1  0
 12 11  1  0
 14 13  1  0
 14 11  1  0
  2 15  1  0
  3 16  1  0
  5 17  1  0
  6 18  1  0
 10 19  1  0
 10 20  1  0
 10 21  1  0
 11 22  1  6
 12 23  1  0
 12 24  1  0
 12 25  1  0
 13 26  1  0
 13 27  1  0
 13 28  1  0
 14 29  1  0
 14 30  1  0
M  CHG  1  12   1
M  END
$$$$
=
     RDKit          3D

 31 33  0  0  0  0  0  0  0  0999 V2000
   13.6250   14.1130    3.8750 C   0  0  0  0  0  0  0  0  0  0  0  0
   14.1700   15.3030    4.3600 C   0  0  0  0  0  0  0  0  0  0  0  0
   15.5570   15.5120    4.3580 C   0  0  0  0  0  0  0  0  0  0  0  0
   16.4140   14.5060    3.8620 C   0  0  0  0  0  0  0  0  0  0  0  0
   15.8390   13.3310    3.3720 C   0  0  0  0  0  0  0  0  0  0  0  0
   14.4550   13.1040    3.3680 C   0  0  0  0  0  0  0  0  0  0  0  0
   16.8630   12.5240    2.9290 N   0  0  0  0  0  0  0  0  0  0  0  0
   18.0700   13.1460    3.1200 C   0  0  0  0  0  0  0  0  0  0  0  0
   17.8290   14.3690    3.7060 C   0  0  0  0  0  0  0  0  0  0  0  0
   18.8600   15.2880    4.0710 C   0  0  0  0  0  0  0  0  0  0  0  0
   19.1190   16.4200    3.3900 C   0  0  0  0  0  0  0  0  0  0  0  0
   20.2150   17.3630    3.7420 C   0  0  0  0  0  0  0  0  0  0  0  0
   20.8040   17.0720    5.0810 N   0  0  0  0  0  4  0  0  0  0  0  0
   21.0400   15.6100    5.3020 C   0  0  0  0  0  0  0  0  0  0  0  0
   19.7070   14.8600    5.2470 C   0  0  0  0  0  0  0  0  0  0  0  0
   11.0530   13.7700    3.8960 N   0  0  0  0  0  0  0  0  0  0  0  0
   12.2040   13.9210    3.8880 C   0  0  0  0  0  0  0  0  0  0  0  0
   13.5033   16.0868    4.7487 H   0  0  0  0  0  0  0  0  0  0  0  0
   15.9747   16.4548    4.7409 H   0  0  0  0  0  0  0  0  0  0  0  0
   14.0347   12.1646    2.9796 H   0  0  0  0  0  0  0  0  0  0  0  0
   16.7402   11.5891    2.5145 H   0  0  0  0  0  0  0  0  0  0  0  0
   19.0567   12.7399    2.8524 H   0  0  0  0  0  0  0  0  0  0  0  0
   18.4846   16.6615    2.5244 H   0  0  0  0  0  0  0  0  0  0  0  0
   21.0069   17.2843    2.9826 H   0  0  0  0  0  0  0  0  0  0  0  0
   19.7891   18.3767    3.7749 H   0  0  0  0  0  0  0  0  0  0  0  0
   21.7039   17.5669    5.1599 H   0  0  0  0  0  0  0  0  0  0  0  0
   20.1312   17.3901    5.7931 H   0  0  0  0  0  0  0  0  0  0  0  0
   21.7092   15.2248    4.5186 H   0  0  0  0  0  0  0  0  0  0  0  0
   21.5028   15.4600    6.2886 H   0  0  0  0  0  0  0  0  0  0  0  0
   19.9100   13.7821    5.1638 H   0  0  0  0  0  0  0  0  0  0  0  0
   19.1503   15.0924    6.1668 H   0  0  0  0  0  0  0  0  0  0  0  0
  2  1  2  0
  3  2  1  0
  4  3  2  0
  5  4  1  0
  6  5  2  0
  6  1  1  0
  7  5  1  0
  8  7  1  0
  9  8  2  0
  9  4  1  0
 10  9  1  0
 11 10  2  0
 12 11  1  0
 13 12  1  0
 14 13  1  0
 15 14  1  0
 15 10  1  0
 17 16  3  0
 17  1  1  0
  2 18  1  0
  3 19  1  0
  6 20  1  0
  7 21  1  0
  8 22  1  0
 11 23  1  0
 12 24  1  0
 12 25  1  0
 13 26  1  0
 13 27  1  0
 14 28  1  0
 14 29  1  0
 15 30  1  0
 15 31  1  0
M  CHG  1  13   1
M  END
$$$$
=
     RDKit          3D

 44 45  0  0  0  0  0  0  0  0999 V2000
   16.7360   15.3600    3.4450 N   0  0  0  0  0  0  0  0  0  0  0  0
   21.1930   16.5940    6.2730 C   0  0  0  0  0  0  0  0  0  0  0  0
   21.7510   15.9140    7.1270 O   0  0  0  0  0  0  0  0  0  0  0  0
   20.2140   16.1110    5.4230 N   0  0  0  0  0  0  0  0  0  0  0  0
   19.7450   14.7420    5.5890 C   0  0  0  0  0  0  0  0  0  0  0  0
   18.3000   14.5930    5.1390 C   0  0  0  0  0  0  0  0  0  0  0  0
   18.1350   14.9680    3.6570 C   0  0  0  0  0  0  0  0  0  0  0  0
   19.1060   16.0770    3.2170 C   0  0  0  0  0  0  0  0  0  0  0  0
   19.5880   16.9270    4.3850 C   0  0  0  0  0  0  0  0  0  0  0  0
   21.4640   17.9100    6.0550 O   0  0  0  0  0  0  0  0  0  0  0  0
   22.5940   19.0510    4.2430 C   0  0  0  0  0  0  0  0  0  0  0  0
   22.7510   18.2020    5.4900 C   0  0  0  0  0  0  0  0  0  0  0  0
   15.7020   14.4060    3.4060 C   0  0  0  0  0  0  0  0  0  0  0  0
   15.8530   13.1060    2.9190 C   0  0  0  0  0  0  0  0  0  0  0  0
   14.7740   12.2170    2.9110 C   0  0  0  0  0  0  0  0  0  0  0  0
   13.5280   12.6030    3.4100 C   0  0  0  0  0  0  0  0  0  0  0  0
   13.3590   13.8770    3.9510 C   0  0  0  0  0  0  0  0  0  0  0  0
   14.4620   14.7550    4.0030 C   0  0  0  0  0  0  0  0  0  0  0  0
   14.2990   16.0760    4.5240 N   0  0  0  0  0  0  0  0  0  0  0  0
   12.1960   14.3580    4.5020 O   0  0  0  0  0  0  0  0  0  0  0  0
   10.9890   14.0520    3.8160 C   0  0  0  0  0  0  0  0  0  0  0  0
   16.5060   16.3564    3.3220 H   0  0  0  0  0  0  0  0  0  0  0  0
   20.3778   14.0715    4.9890 H   0  0  0  0  0  0  0  0  0  0  0  0
   19.8041   14.4824    6.6563 H   0  0  0  0  0  0  0  0  0  0  0  0
   17.9863   13.5484    5.2814 H   0  0  0  0  0  0  0  0  0  0  0  0
   17.6773   15.2717    5.7403 H   0  0  0  0  0  0  0  0  0  0  0  0
   18.3857   14.0975    3.0329 H   0  0  0  0  0  0  0  0  0  0  0  0
   19.9787   15.6113    2.7358 H   0  0  0  0  0  0  0  0  0  0  0  0
   18.5662   16.7379    2.5229 H   0  0  0  0  0  0  0  0  0  0  0  0
   20.3217   17.6584    4.0152 H   0  0  0  0  0  0  0  0  0  0  0  0
   18.7158   17.4328    4.8249 H   0  0  0  0  0  0  0  0  0  0  0  0
   22.4010   20.0947    4.5319 H   0  0  0  0  0  0  0  0  0  0  0  0
   23.5167   19.0003    3.6464 H   0  0  0  0  0  0  0  0  0  0  0  0
   21.7504   18.6737    3.6464 H   0  0  0  0  0  0  0  0  0  0  0  0
   23.3565   18.7485    6.2280 H   0  0  0  0  0  0  0  0  0  0  0  0
   23.2483   17.2582    5.2219 H   0  0  0  0  0  0  0  0  0  0  0  0
   16.8312   12.7779    2.5376 H   0  0  0  0  0  0  0  0  0  0  0  0
   14.9079   11.2025    2.5073 H   0  0  0  0  0  0  0  0  0  0  0  0
   12.6806   11.9025    3.3763 H   0  0  0  0  0  0  0  0  0  0  0  0
   15.1039   16.7175    4.5622 H   0  0  0  0  0  0  0  0  0  0  0  0
   13.3766   16.3864    4.8612 H   0  0  0  0  0  0  0  0  0  0  0  0
   10.1926   13.8501    4.5474 H   0  0  0  0  0  0  0  0  0  0  0  0
   10.6995   14.9052    3.1849 H   0  0  0  0  0  0  0  0  0  0  0  0
   11.1410   13.1640    3.1849 H   0  0  0  0  0  0  0  0  0  0  0  0
  3  2  2  0
  4  2  1  0
  5  4  1  0
  6  5  1  0
  7  6  1  0
  7  1  1  0
  8  7  1  0
  9  8  1  0
  9  4  1  0
 10  2  1  0
 12 10  1  0
 12 11  1  0
 13  1  1  0
 14 13  2  0
 15 14  1  0
 16 15  2  0
 17 16  1  0
 18 17  2  0
 18 13  1  0
 19 18  1  0
 20 17  1  0
 21 20  1  0
  1 22  1  0
  5 23  1  0
  5 24  1  0
  6 25  1  0
  6 26  1  0
  7 27  1  0
  8 28  1  0
  8 29  1  0
  9 30  1  0
  9 31  1  0
 11 32  1  0
 11 33  1  0
 11 34  1  0
 12 35  1  0
 12 36  1  0
 14 37  1  0
 15 38  1  0
 16 39  1  0
 19 40  1  0
 19 41  1  0
 21 42  1  0
 21 43  1  0
 21 44  1  0
M  END
$$$$
=
     RDKit          3D

 18 18  0  0  0  0  0  0  0  0999 V2000
   17.6960   14.9160    3.8200 C   0  0  0  0  0  0  0  0  0  0  0  0
   16.7630   13.8720    3.3410 C   0  0  0  0  0  0  0  0  0  0  0  0
   17.0920   12.6460    2.7950 C   0  0  0  0  0  0  0  0  0  0  0  0
   15.9760   11.9560    2.4570 O   0  0  0  0  0  0  0  0  0  0  0  0
   14.9120   12.7190    2.8040 C   0  0  0  0  0  0  0  0  0  0  0  0
   15.3370   13.9060    3.3530 C   0  0  0  0  0  0  0  0  0  0  0  0
   20.1320   15.3480    4.3000 C   0  0  0  0  0  0  0  0  0  0  0  0
   19.1220   14.6100    3.4960 N   0  0  0  0  0  4  0  0  0  0  0  0
   17.4257   15.8723    3.3484 H   0  0  0  0  0  0  0  0  0  0  0  0
   17.6075   14.9623    4.9155 H   0  0  0  0  0  0  0  0  0  0  0  0
   18.1197   12.2801    2.6540 H   0  0  0  0  0  0  0  0  0  0  0  0
   13.8594   12.4306    2.6664 H   0  0  0  0  0  0  0  0  0  0  0  0
   14.7017   14.7220    3.7280 H   0  0  0  0  0  0  0  0  0  0  0  0
   19.9283   15.1992    5.3707 H   0  0  0  0  0  0  0  0  0  0  0  0
   21.1373   14.9702    4.0620 H   0  0  0  0  0  0  0  0  0  0  0  0
   20.0775   16.4206    4.0620 H   0  0  0  0  0  0  0  0  0  0  0  0
   19.2781   14.8374    2.5036 H   0  0  0  0  0  0  0  0  0  0  0  0
   19.2557   13.6133    3.7186 H   0  0  0  0  0  0  0  0  0  0  0  0
  2  1  1  0
  3  2  2  0
  4  3  1  0
  5  4  1  0
  6  5  2  0
  6  2  1  0
  8  7  1  0
  8  1  1  0
  1  9  1  0
  1 10  1  0
  3 11  1  0
  5 12  1  0
  6 13  1  0
  7 14  1  0
  7 15  1  0
  7 16  1  0
  8 17  1  0
  8 18  1  0
M  CHG  1   8   1
M  END
$$$$
=
     RDKit          3D

 30 30  0  0  0  0  0  0  0  0999 V2000
   17.6560   13.9380    3.3860 C   0  0  0  0  0  0  0  0  0  0  0  0
   17.1440   12.7220    2.9780 C   0  0  0  0  0  0  0  0  0  0  0  0
   15.7690   12.5290    3.0520 C   0  0  0  0  0  0  0  0  0  0  0  0
   14.9400   13.5520    3.5400 C   0  0  0  0  0  0  0  0  0  0  0  0
   15.5520   14.7500    3.9360 C   0  0  0  0  0  0  0  0  0  0  0  0
   16.8880   14.9440    3.8500 N   0  0  0  0  0  0  0  0  0  0  0  0
   14.7750   15.9110    4.4880 C   0  0  0  0  0  0  0  0  0  0  0  0
   19.0210   14.0930    3.2860 O   0  0  0  0  0  0  0  0  0  0  0  0
   20.3130   15.2480    4.9230 C   0  0  0  0  0  0  0  0  0  0  0  0
   19.4760   15.3940    3.6640 C   0  0  0  0  0  0  0  0  0  0  0  0
   13.4550   13.3520    3.5670 C   0  0  0  0  0  0  0  0  0  0  0  0
   13.0490   12.2040    2.7030 N   0  0  0  0  0  4  0  0  0  0  0  0
   11.5990   12.1450    2.3950 C   0  0  0  0  0  0  0  0  0  0  0  0
   17.8064   11.9272    2.6044 H   0  0  0  0  0  0  0  0  0  0  0  0
   15.3301   11.5738    2.7279 H   0  0  0  0  0  0  0  0  0  0  0  0
   14.7973   15.8777    5.5873 H   0  0  0  0  0  0  0  0  0  0  0  0
   15.2258   16.8523    4.1405 H   0  0  0  0  0  0  0  0  0  0  0  0
   13.7329   15.8532    4.1405 H   0  0  0  0  0  0  0  0  0  0  0  0
   19.6682   15.3605    5.8071 H   0  0  0  0  0  0  0  0  0  0  0  0
   20.7842   14.2541    4.9369 H   0  0  0  0  0  0  0  0  0  0  0  0
   21.0928   16.0237    4.9369 H   0  0  0  0  0  0  0  0  0  0  0  0
   18.6143   16.0485    3.8618 H   0  0  0  0  0  0  0  0  0  0  0  0
   20.0739   15.8407    2.8559 H   0  0  0  0  0  0  0  0  0  0  0  0
   13.1386   13.1520    4.6014 H   0  0  0  0  0  0  0  0  0  0  0  0
   12.9737   14.2638    3.1836 H   0  0  0  0  0  0  0  0  0  0  0  0
   13.5637   12.2736    1.8136 H   0  0  0  0  0  0  0  0  0  0  0  0
   13.2700   11.3483    3.2320 H   0  0  0  0  0  0  0  0  0  0  0  0
   11.0255   12.1217    3.3334 H   0  0  0  0  0  0  0  0  0  0  0  0
   11.3117   13.0322    1.8116 H   0  0  0  0  0  0  0  0  0  0  0  0
   11.3847   11.2374    1.8116 H   0  0  0  0  0  0  0  0  0  0  0  0
  2  1  2  0
  3  2  1  0
  4  3  2  0
  5  4  1  0
  6  5  2  0
  6  1  1  0
  7  5  1  0
  8  1  1  0
 10  9  1  0
 10  8  1  0
 11  4  1  0
 12 11  1  0
 13 12  1  0
  2 14  1  0
  3 15  1  0
  7 16  1  0
  7 17  1  0
  7 18  1  0
  9 19  1  0
  9 20  1  0
  9 21  1  0
 10 22  1  0
 10 23  1  0
 11 24  1  0
 11 25  1  0
 12 26  1  0
 12 27  1  0
 13 28  1  0
 13 29  1  0
 13 30  1  0
M  CHG  1  12   1
M  END
$$$$
=
     RDKit          3D

 24 23  0  0  0  0  0  0  0  0999 V2000
   19.7110   16.2580    4.9520 C   0  0  1  0  0  0  0  0  0  0  0  0
   19.9720   15.1920    3.8840 N   0  0  0  0  0  4  0  0  0  0  0  0
   19.8130   17.6410    4.2270 C   0  0  0  0  0  0  0  0  0  0  0  0
   21.1910   18.3060    4.3370 C   0  0  0  0  0  0  0  0  0  0  0  0
   19.4170   17.5960    2.7390 C   0  0  0  0  0  0  0  0  0  0  0  0
   17.4220   17.1140    5.9110 C   0  0  0  0  0  0  0  0  0  0  0  0
   18.2940   15.9300    5.4980 C   0  0  0  0  0  0  0  0  0  0  0  0
   20.7540   16.0790    5.9890 C   0  0  0  0  0  0  0  0  0  0  0  0
   21.4900   15.8910    6.8630 N   0  0  0  0  0  0  0  0  0  0  0  0
   20.1916   14.2952    4.3405 H   0  0  0  0  0  0  0  0  0  0  0  0
   19.1331   15.0819    3.2966 H   0  0  0  0  0  0  0  0  0  0  0  0
   20.7668   15.4819    3.2966 H   0  0  0  0  0  0  0  0  0  0  0  0
   19.0801   18.2511    4.7753 H   0  0  0  0  0  0  0  0  0  0  0  0
   21.4534   18.4326    5.3977 H   0  0  0  0  0  0  0  0  0  0  0  0
   21.9442   17.6722    3.8461 H   0  0  0  0  0  0  0  0  0  0  0  0
   21.1635   19.2900    3.8461 H   0  0  0  0  0  0  0  0  0  0  0  0
   18.3274   17.4722    2.6531 H   0  0  0  0  0  0  0  0  0  0  0  0
   19.7190   18.5342    2.2507 H   0  0  0  0  0  0  0  0  0  0  0  0
   19.9218   16.7494    2.2507 H   0  0  0  0  0  0  0  0  0  0  0  0
   17.3790   17.1724    7.0086 H   0  0  0  0  0  0  0  0  0  0  0  0
   17.8527   18.0438    5.5109 H   0  0  0  0  0  0  0  0  0  0  0  0
   16.4063   16.9785    5.5109 H   0  0  0  0  0  0  0  0  0  0  0  0
   17.7552   15.3779    4.7139 H   0  0  0  0  0  0  0  0  0  0  0  0
   18.4676   15.3642    6.4252 H   0  0  0  0  0  0  0  0  0  0  0  0
  2  1  1  0
  3  1  1  0
  4  3  1  0
  5  3  1  0
  7  1  1  0
  7  6  1  0
  1  8  1  1
  9  8  3  0
  2 10  1  0
  2 11  1  0
  2 12  1  0
  3 13  1  0
  4 14  1  0
  4 15  1  0
  4 16  1  0
  5 17  1  0
  5 18  1  0
  5 19  1  0
  6 20  1  0
  6 21  1  0
  6 22  1  0
  7 23  1  0
  7 24  1  0
M  CHG  1   2   1
M  END
$$$$
=
     RDKit          3D

 36 35  0  0  0  0  0  0  0  0999 V2000
   19.1260   14.5770    4.6800 C   0  0  0  0  0  0  0  0  0  0  0  0
   18.1370   15.5370    4.1010 N   0  0  0  0  0  4  0  0  0  0  0  0
   16.7060   15.0870    4.0750 C   0  0  0  0  0  0  0  0  0  0  0  0
   15.9330   15.8260    5.1700 C   0  0  0  0  0  0  0  0  0  0  0  0
   13.9890   14.6600    4.4990 C   0  0  0  0  0  0  0  0  0  0  0  0
   14.8610   14.9670    5.5870 O   0  0  0  0  0  0  0  0  0  0  0  0
   19.5140   14.9770    6.0970 C   0  0  0  0  0  0  0  0  0  0  0  0
   20.7980   15.7610    6.0770 C   0  0  0  0  0  0  0  0  0  0  0  0
   21.4920   15.8880    7.0780 O   0  0  0  0  0  0  0  0  0  0  0  0
   21.0120   16.2970    4.8560 O   0  0  0  0  0  0  0  0  0  0  0  0
   21.0220   17.7370    4.6560 C   0  0  0  0  0  0  0  0  0  0  0  0
   19.9590   18.4210    5.5230 C   0  0  0  0  0  0  0  0  0  0  0  0
   22.4190   18.3190    4.9000 C   0  0  0  0  0  0  0  0  0  0  0  0
   20.6540   17.9330    3.1780 C   0  0  0  0  0  0  0  0  0  0  0  0
   18.6810   13.5712    4.6998 H   0  0  0  0  0  0  0  0  0  0  0  0
   20.0305   14.5876    4.0541 H   0  0  0  0  0  0  0  0  0  0  0  0
   18.1824   16.4050    4.6537 H   0  0  0  0  0  0  0  0  0  0  0  0
   18.4074   15.6453    3.1131 H   0  0  0  0  0  0  0  0  0  0  0  0
   16.2650   15.3155    3.0935 H   0  0  0  0  0  0  0  0  0  0  0  0
   16.6536   14.0022    4.2497 H   0  0  0  0  0  0  0  0  0  0  0  0
   16.5967   16.0403    6.0206 H   0  0  0  0  0  0  0  0  0  0  0  0
   15.5424   16.7831    4.7939 H   0  0  0  0  0  0  0  0  0  0  0  0
   13.0196   14.3187    4.8911 H   0  0  0  0  0  0  0  0  0  0  0  0
   13.8395   15.5596    3.8838 H   0  0  0  0  0  0  0  0  0  0  0  0
   14.4360   13.8652    3.8838 H   0  0  0  0  0  0  0  0  0  0  0  0
   18.7158   15.5963    6.5322 H   0  0  0  0  0  0  0  0  0  0  0  0
   19.6544   14.0696    6.7027 H   0  0  0  0  0  0  0  0  0  0  0  0
   20.1980   18.2672    6.5856 H   0  0  0  0  0  0  0  0  0  0  0  0
   19.9441   19.4986    5.3028 H   0  0  0  0  0  0  0  0  0  0  0  0
   18.9721   17.9880    5.3028 H   0  0  0  0  0  0  0  0  0  0  0  0
   22.6008   18.3947    5.9822 H   0  0  0  0  0  0  0  0  0  0  0  0
   23.1747   17.6609    4.4464 H   0  0  0  0  0  0  0  0  0  0  0  0
   22.4839   19.3190    4.4464 H   0  0  0  0  0  0  0  0  0  0  0  0
   19.6852   18.4490    3.1067 H   0  0  0  0  0  0  0  0  0  0  0  0
   21.4288   18.5379    2.6843 H   0  0  0  0  0  0  0  0  0  0  0  0
   20.5844   16.9525    2.6843 H   0  0  0  0  0  0  0  0  0  0  0  0
  2  1  1  0
  3  2  1  0
  4  3  1  0
  6  5  1  0
  6  4  1  0
  7  1  1  0
  8  7  1  0
  9  8  2  0
 10  8  1  0
 11 10  1  0
 12 11  1  0
 13 11  1  0
 14 11  1  0
  1 15  1  0
  1 16  1  0
  2 17  1  0
  2 18  1  0
  3 19  1  0
  3 20  1  0
  4 21  1  0
  4 22  1  0
  5 23  1  0
  5 24  1  0
  5 25  1  0
  7 26  1  0
  7 27  1  0
 12 28  1  0
 12 29  1  0
 12 30  1  0
 13 31  1  0
 13 32  1  0
 13 33  1  0
 14 34  1  0
 14 35  1  0
 14 36  1  0
M  CHG  1   2   1
M  END
$$$$
=
     RDKit          3D

 25 25  0  0  0  0  0  0  0  0999 V2000
   19.5950   17.4700    2.0420 C   0  0  0  0  0  0  0  0  0  0  0  0
   19.7380   16.8320    3.4160 C   0  0  2  0  0  0  0  0  0  0  0  0
   19.5990   15.3510    3.2350 N   0  0  0  0  0  4  0  0  0  0  0  0
   18.6920   17.2690    4.4400 C   0  0  0  0  0  0  0  0  0  0  0  0
   17.8650   16.1350    5.0480 C   0  0  1  0  0  0  0  0  0  0  0  0
   17.0260   16.4960    6.2620 C   0  0  0  0  0  0  0  0  0  0  0  0
   15.8910   15.5060    6.1600 C   0  0  0  0  0  0  0  0  0  0  0  0
   15.6630   15.4350    4.6670 C   0  0  0  0  0  0  0  0  0  0  0  0
   16.9260   15.7110    4.0430 O   0  0  0  0  0  0  0  0  0  0  0  0
   19.3557   18.5375    2.1565 H   0  0  0  0  0  0  0  0  0  0  0  0
   20.5394   17.3633    1.4881 H   0  0  0  0  0  0  0  0  0  0  0  0
   18.7865   16.9704    1.4881 H   0  0  0  0  0  0  0  0  0  0  0  0
   20.7141   17.1490    3.8119 H   0  0  0  0  0  0  0  0  0  0  0  0
   19.5562   14.8949    4.1575 H   0  0  0  0  0  0  0  0  0  0  0  0
   18.7353   15.1486    2.7115 H   0  0  0  0  0  0  0  0  0  0  0  0
   20.4099   14.9915    2.7115 H   0  0  0  0  0  0  0  0  0  0  0  0
   19.2125   17.7877    5.2585 H   0  0  0  0  0  0  0  0  0  0  0  0
   17.9811   17.9093    3.8972 H   0  0  0  0  0  0  0  0  0  0  0  0
   18.5964   15.3811    5.3748 H   0  0  0  0  0  0  0  0  0  0  0  0
   17.5928   16.3605    7.1950 H   0  0  0  0  0  0  0  0  0  0  0  0
   16.6999   17.5464    6.2811 H   0  0  0  0  0  0  0  0  0  0  0  0
   16.1792   14.5254    6.5666 H   0  0  0  0  0  0  0  0  0  0  0  0
   14.9969   15.7987    6.7300 H   0  0  0  0  0  0  0  0  0  0  0  0
   15.3119   14.4316    4.3845 H   0  0  0  0  0  0  0  0  0  0  0  0
   14.8981   16.1586    4.3488 H   0  0  0  0  0  0  0  0  0  0  0  0
  2  1  1  0
  3  2  1  0
  4  2  1  0
  5  4  1  0
  6  5  1  0
  7  6  1  0
  8  7  1  0
  9  8  1  0
  9  5  1  0
  1 10  1  0
  1 11  1  0
  1 12  1  0
  2 13  1  1
  3 14  1  0
  3 15  1  0
  3 16  1  0
  4 17  1  0
  4 18  1  0
  5 19  1  1
  6 20  1  0
  6 21  1  0
  7 22  1  0
  7 23  1  0
  8 24  1  0
  8 25  1  0
M  CHG  1   3   1
M  END
$$$$
=
     RDKit          3D

 55 57  0  0  0  0  0  0  0  0999 V2000
   13.1070   14.2940    4.3130 C   0  0  0  0  0  0  0  0  0  0  0  0
   12.9810   13.2670    3.1690 C   0  0  0  0  0  0  0  0  0  0  0  0
   11.8930   12.2380    3.4710 C   0  0  0  0  0  0  0  0  0  0  0  0
   10.6290   12.9120    3.7430 N   0  0  0  0  0  0  0  0  0  0  0  0
   10.6780   13.8350    4.8810 C   0  0  0  0  0  0  0  0  0  0  0  0
   11.7280   14.9170    4.6220 C   0  0  0  0  0  0  0  0  0  0  0  0
    9.6830   12.9750    2.7220 C   0  0  0  0  0  0  0  0  0  0  0  0
    9.8290   12.4670    1.6130 O   0  0  0  0  0  0  0  0  0  0  0  0
    8.4300   13.6920    2.9630 C   0  0  0  0  0  0  0  0  0  0  0  0
    8.2160   14.9070    2.3550 C   0  0  0  0  0  0  0  0  0  0  0  0
    7.0920   15.6360    2.5290 N   0  0  0  0  0  0  0  0  0  0  0  0
    6.1620   15.1050    3.3300 C   0  0  0  0  0  0  0  0  0  0  0  0
    6.2560   13.9100    3.9250 N   0  0  0  0  0  0  0  0  0  0  0  0
    7.3930   13.1980    3.7310 C   0  0  0  0  0  0  0  0  0  0  0  0
    7.4590   11.8520    4.3860 C   0  0  0  0  0  0  0  0  0  0  0  0
    5.0020   15.8220    3.5190 N   0  0  0  0  0  0  0  0  0  0  0  0
   14.1430   15.3690    3.9510 C   0  0  0  0  0  0  0  0  0  0  0  0
   15.5820   15.3100    5.9000 O   0  0  0  0  0  0  0  0  0  0  0  0
   15.4620   15.2050    4.6860 C   0  0  0  0  0  0  0  0  0  0  0  0
   16.5070   14.9050    3.8430 N   0  0  0  0  0  0  0  0  0  0  0  0
   17.8600   14.6920    4.3280 C   0  0  1  0  0  0  0  0  0  0  0  0
   18.5630   13.5790    3.5440 C   0  0  0  0  0  0  0  0  0  0  0  0
   18.6160   16.0080    4.2980 C   0  0  0  0  0  0  0  0  0  0  0  0
   19.1950   16.4450    3.0950 C   0  0  0  0  0  0  0  0  0  0  0  0
   19.9180   17.6380    3.0410 C   0  0  0  0  0  0  0  0  0  0  0  0
   20.0830   18.4060    4.1910 C   0  0  0  0  0  0  0  0  0  0  0  0
   19.5270   17.9810    5.3960 C   0  0  0  0  0  0  0  0  0  0  0  0
   18.8030   16.7880    5.4510 C   0  0  0  0  0  0  0  0  0  0  0  0
   13.4579   13.7827    5.2216 H   0  0  0  0  0  0  0  0  0  0  0  0
   12.7273   13.7954    2.2382 H   0  0  0  0  0  0  0  0  0  0  0  0
   13.9410   12.7401    3.0652 H   0  0  0  0  0  0  0  0  0  0  0  0
   11.7712   11.5719    2.6041 H   0  0  0  0  0  0  0  0  0  0  0  0
   12.1864   11.6519    4.3544 H   0  0  0  0  0  0  0  0  0  0  0  0
    9.6926   14.3057    5.0128 H   0  0  0  0  0  0  0  0  0  0  0  0
   10.9456   13.2778    5.7909 H   0  0  0  0  0  0  0  0  0  0  0  0
   11.4098   15.5278    3.7643 H   0  0  0  0  0  0  0  0  0  0  0  0
   11.8203   15.5366    5.5262 H   0  0  0  0  0  0  0  0  0  0  0  0
    8.9996   15.3053    1.6937 H   0  0  0  0  0  0  0  0  0  0  0  0
    7.4529   11.9754    5.4790 H   0  0  0  0  0  0  0  0  0  0  0  0
    6.5892   11.2522    4.0799 H   0  0  0  0  0  0  0  0  0  0  0  0
    8.3833   11.3402    4.0799 H   0  0  0  0  0  0  0  0  0  0  0  0
    4.2597   15.4494    4.1282 H   0  0  0  0  0  0  0  0  0  0  0  0
    4.8764   16.7310    3.0512 H   0  0  0  0  0  0  0  0  0  0  0  0
   14.3372   15.3164    2.8696 H   0  0  0  0  0  0  0  0  0  0  0  0
   13.7223   16.3403    4.2502 H   0  0  0  0  0  0  0  0  0  0  0  0
   16.3238   14.8287    2.8323 H   0  0  0  0  0  0  0  0  0  0  0  0
   17.8290   14.3457    5.3716 H   0  0  0  0  0  0  0  0  0  0  0  0
   19.0146   12.8640    4.2474 H   0  0  0  0  0  0  0  0  0  0  0  0
   17.8302   13.0574    2.9109 H   0  0  0  0  0  0  0  0  0  0  0  0
   19.3489   14.0166    2.9109 H   0  0  0  0  0  0  0  0  0  0  0  0
   19.0772   15.8396    2.1842 H   0  0  0  0  0  0  0  0  0  0  0  0
   20.3577   17.9716    2.0895 H   0  0  0  0  0  0  0  0  0  0  0  0
   20.6514   19.3468    4.1482 H   0  0  0  0  0  0  0  0  0  0  0  0
   19.6585   18.5860    6.3052 H   0  0  0  0  0  0  0  0  0  0  0  0
   18.3744   16.4555    6.4080 H   0  0  0  0  0  0  0  0  0  0  0  0
  2  1  1  0
  3  2  1  0
  4  3  1  0
  5  4  1  0
  6  5  1  0
  6  1  1  0
  7  4  1  0
  8  7  2  0
  9  7  1  0
 10  9  2  0
 11 10  1  0
 12 11  2  0
 13 12  1  0
 14 13  2  0
 14  9  1  0
 15 14  1  0
 16 12  1  0
 17  1  1  0
 19 17  1  0
 19 18  2  0
 20 19  1  0
 21 20  1  0
 22 21  1  0
 23 21  1  0
 24 23  2  0
 25 24  1  0
 26 25  2  0
 27 26  1  0
 28 23  1  0
 28 27  2  0
  1 29  1  0
  2 30  1  0
  2 31  1  0
  3 32  1  0
  3 33  1  0
  5 34  1  0
  5 35  1  0
  6 36  1  0
  6 37  1  0
 10 38  1  0
 15 39  1  0
 15 40  1  0
 15 41  1  0
 16 42  1  0
 16 43  1  0
 17 44  1  0
 17 45  1  0
 20 46  1  0
 21 47  1  1
 22 48  1  0
 22 49  1  0
 22 50  1  0
 24 51  1  0
 25 52  1  0
 26 53  1  0
 27 54  1  0
 28 55  1  0
M  END
$$$$
=
     RDKit          3D

 28 28  0  0  0  0  0  0  0  0999 V2000
   19.4720   16.9880    2.6830 C   0  0  0  0  0  0  0  0  0  0  0  0
   18.9120   17.2560    4.0950 C   0  0  2  0  0  0  0  0  0  0  0  0
   20.0050   17.7870    5.0320 C   0  0  0  0  0  0  0  0  0  0  0  0
   21.1410   16.8310    5.1610 N   0  0  0  0  0  4  0  0  0  0  0  0
   21.1110   15.8530    6.2770 C   0  0  0  0  0  0  0  0  0  0  0  0
   19.7870   15.1210    6.4370 C   0  0  0  0  0  0  0  0  0  0  0  0
   18.9530   14.8890    5.1790 C   0  0  0  0  0  0  0  0  0  0  0  0
   18.0840   16.0630    4.6620 C   0  0  1  0  0  0  0  0  0  0  0  0
   17.0840   16.5740    5.7420 C   0  0  0  0  0  0  0  0  0  0  0  0
   15.9190   16.9480    5.1730 F   0  0  0  0  0  0  0  0  0  0  0  0
   16.8170   15.6190    6.6580 F   0  0  0  0  0  0  0  0  0  0  0  0
   17.5840   17.6350    6.4070 F   0  0  0  0  0  0  0  0  0  0  0  0
   17.3470   15.5070    3.5430 O   0  0  0  0  0  0  0  0  0  0  0  0
   20.4615   16.5145    2.7648 H   0  0  0  0  0  0  0  0  0  0  0  0
   18.7892   16.3191    2.1386 H   0  0  0  0  0  0  0  0  0  0  0  0
   19.5647   17.9394    2.1386 H   0  0  0  0  0  0  0  0  0  0  0  0
   18.1702   18.0642    4.0147 H   0  0  0  0  0  0  0  0  0  0  0  0
   20.3850   18.7384    4.6315 H   0  0  0  0  0  0  0  0  0  0  0  0
   19.5612   17.9246    6.0290 H   0  0  0  0  0  0  0  0  0  0  0  0
   21.1882   16.2926    4.2842 H   0  0  0  0  0  0  0  0  0  0  0  0
   21.9549   17.4279    5.3664 H   0  0  0  0  0  0  0  0  0  0  0  0
   21.8981   15.1052    6.1002 H   0  0  0  0  0  0  0  0  0  0  0  0
   21.2651   16.4280    7.2020 H   0  0  0  0  0  0  0  0  0  0  0  0
   20.0061   14.1353    6.8734 H   0  0  0  0  0  0  0  0  0  0  0  0
   19.1728   15.7862    7.0616 H   0  0  0  0  0  0  0  0  0  0  0  0
   19.6471   14.6140    4.3712 H   0  0  0  0  0  0  0  0  0  0  0  0
   18.2281   14.1131    5.4663 H   0  0  0  0  0  0  0  0  0  0  0  0
   16.6046   14.9469    3.8825 H   0  0  0  0  0  0  0  0  0  0  0  0
  2  1  1  0
  3  2  1  0
  4  3  1  0
  5  4  1  0
  6  5  1  0
  7  6  1  0
  8  7  1  0
  8  2  1  0
  9  8  1  0
 10  9  1  0
 11  9  1  0
 12  9  1  0
  8 13  1  6
  1 14  1  0
  1 15  1  0
  1 16  1  0
  2 17  1  6
  3 18  1  0
  3 19  1  0
  4 20  1  0
  4 21  1  0
  5 22  1  0
  5 23  1  0
  6 24  1  0
  6 25  1  0
  7 26  1  0
  7 27  1  0
 13 28  1  0
M  CHG  1   4   1
M  END
$$$$
=
     RDKit          3D

 40 41  0  0  0  0  0  0  0  0999 V2000
   20.0350   16.0350    5.3430 N   0  0  0  0  0  4  0  0  0  0  0  0
   19.7190   17.4900    5.6230 C   0  0  0  0  0  0  0  0  0  0  0  0
   18.1920   17.7320    5.5250 C   0  0  0  0  0  0  0  0  0  0  0  0
   17.4000   16.4930    5.5410 N   0  0  0  0  0  0  0  0  0  0  0  0
   17.8630   15.5500    6.5660 C   0  0  0  0  0  0  0  0  0  0  0  0
   19.3230   15.0860    6.3030 C   0  0  0  0  0  0  0  0  0  0  0  0
   17.1880   15.9020    4.2850 C   0  0  0  0  0  0  0  0  0  0  0  0
   18.0640   15.9770    3.4220 O   0  0  0  0  0  0  0  0  0  0  0  0
   15.9500   15.0980    4.0930 C   0  0  0  0  0  0  0  0  0  0  0  0
   14.7420   15.6060    4.5720 C   0  0  0  0  0  0  0  0  0  0  0  0
   13.5600   14.8990    4.3530 C   0  0  0  0  0  0  0  0  0  0  0  0
   13.5740   13.6700    3.6730 C   0  0  0  0  0  0  0  0  0  0  0  0
   14.8010   13.1140    3.2660 C   0  0  0  0  0  0  0  0  0  0  0  0
   15.9750   13.8590    3.4420 C   0  0  0  0  0  0  0  0  0  0  0  0
   12.2680   12.9630    3.4240 C   0  0  0  0  0  0  0  0  0  0  0  0
   14.8570   11.9460    2.4930 N   0  0  0  0  0  0  0  0  0  0  0  0
   22.3380   16.9630    4.9740 C   0  0  0  0  0  0  0  0  0  0  0  0
   21.4760   15.7190    5.0730 C   0  0  0  0  0  0  0  0  0  0  0  0
   19.6187   15.8487    4.4195 H   0  0  0  0  0  0  0  0  0  0  0  0
   20.0641   17.7490    6.6348 H   0  0  0  0  0  0  0  0  0  0  0  0
   20.2314   18.1189    4.8801 H   0  0  0  0  0  0  0  0  0  0  0  0
   17.8826   18.3542    6.3777 H   0  0  0  0  0  0  0  0  0  0  0  0
   18.0035   18.2243    4.5595 H   0  0  0  0  0  0  0  0  0  0  0  0
   17.8167   16.0411    7.5492 H   0  0  0  0  0  0  0  0  0  0  0  0
   17.2112   14.6644    6.5366 H   0  0  0  0  0  0  0  0  0  0  0  0
   19.3062   14.0772    5.8649 H   0  0  0  0  0  0  0  0  0  0  0  0
   19.8668   15.0824    7.2592 H   0  0  0  0  0  0  0  0  0  0  0  0
   14.7220   16.5597    5.1198 H   0  0  0  0  0  0  0  0  0  0  0  0
   12.6061   15.3084    4.7169 H   0  0  0  0  0  0  0  0  0  0  0  0
   16.9295   13.4646    3.0633 H   0  0  0  0  0  0  0  0  0  0  0  0
   11.7992   12.7092    4.3862 H   0  0  0  0  0  0  0  0  0  0  0  0
   11.5978   13.6215    2.8520 H   0  0  0  0  0  0  0  0  0  0  0  0
   12.4530   12.0418    2.8520 H   0  0  0  0  0  0  0  0  0  0  0  0
   15.7685   11.5599    2.2085 H   0  0  0  0  0  0  0  0  0  0  0  0
   13.9866   11.4738    2.2095 H   0  0  0  0  0  0  0  0  0  0  0  0
   22.5849   17.3194    5.9849 H   0  0  0  0  0  0  0  0  0  0  0  0
   23.2653   16.7244    4.4326 H   0  0  0  0  0  0  0  0  0  0  0  0
   21.7889   17.7475    4.4326 H   0  0  0  0  0  0  0  0  0  0  0  0
   21.8578   15.0901    5.8907 H   0  0  0  0  0  0  0  0  0  0  0  0
   21.5272   15.2006    4.1042 H   0  0  0  0  0  0  0  0  0  0  0  0
  2  1  1  0
  3  2  1  0
  4  3  1  0
  5  4  1  0
  6  1  1  0
  6  5  1  0
  7  4  1  0
  8  7  2  0
  9  7  1  0
 10  9  2  0
 11 10  1  0
 12 11  2  0
 13 12  1  0
 14 13  2  0
 14  9  1  0
 15 12  1  0
 16 13  1  0
 18  1  1  0
 18 17  1  0
  1 19  1  0
  2 20  1  0
  2 21  1  0
  3 22  1  0
  3 23  1  0
  5 24  1  0
  5 25  1  0
  6 26  1  0
  6 27  1  0
 10 28  1  0
 11 29  1  0
 14 30  1  0
 15 31  1  0
 15 32  1  0
 15 33  1  0
 16 34  1  0
 16 35  1  0
 17 36  1  0
 17 37  1  0
 17 38  1  0
 18 39  1  0
 18 40  1  0
M  CHG  1   1   1
M  END
$$$$
=
     RDKit          3D

 44 46  0  0  0  0  0  0  0  0999 V2000
   17.2630   15.2020    3.9110 C   0  0  0  0  0  0  0  0  0  0  0  0
   16.1480   15.9120    4.3070 C   0  0  0  0  0  0  0  0  0  0  0  0
   14.9060   15.3750    4.3880 N   0  0  0  0  0  0  0  0  0  0  0  0
   14.8080   14.0740    4.0210 C   0  0  0  0  0  0  0  0  0  0  0  0
   15.8340   13.3000    3.6280 N   0  0  0  0  0  0  0  0  0  0  0  0
   17.0630   13.8790    3.5580 C   0  0  0  0  0  0  0  0  0  0  0  0
   18.1870   13.0120    3.0680 C   0  0  0  0  0  0  0  0  0  0  0  0
   18.7950   16.4380    2.7250 O   0  0  0  0  0  0  0  0  0  0  0  0
   18.5610   15.8710    3.7860 C   0  0  0  0  0  0  0  0  0  0  0  0
   19.4280   15.8480    4.8660 N   0  0  0  0  0  0  0  0  0  0  0  0
   20.6920   16.5880    4.7690 C   0  0  0  0  0  0  0  0  0  0  0  0
   21.2040   16.9830    6.1580 C   0  0  0  0  0  0  0  0  0  0  0  0
   21.3640   15.8820    7.0640 O   0  0  0  0  0  0  0  0  0  0  0  0
   20.6480   14.7000    6.6910 C   0  0  0  0  0  0  0  0  0  0  0  0
   19.2850   15.0100    6.0620 C   0  0  0  0  0  0  0  0  0  0  0  0
   13.4070   13.4730    4.0550 C   0  0  2  0  0  0  0  0  0  0  0  0
   13.0170   12.8920    2.6960 C   0  0  0  0  0  0  0  0  0  0  0  0
   11.6210   12.2680    2.7160 C   0  0  0  0  0  0  0  0  0  0  0  0
   10.6400   13.0060    3.6260 C   0  0  0  0  0  0  0  0  0  0  0  0
   11.0380   14.4550    3.8260 C   0  0  0  0  0  0  0  0  0  0  0  0
   12.3760   14.5160    4.4710 N   0  0  0  0  0  4  0  0  0  0  0  0
   16.2740   16.9723    4.5715 H   0  0  0  0  0  0  0  0  0  0  0  0
   18.7294   12.5936    3.9287 H   0  0  0  0  0  0  0  0  0  0  0  0
   17.7789   12.1925    2.4582 H   0  0  0  0  0  0  0  0  0  0  0  0
   18.8760   13.6148    2.4582 H   0  0  0  0  0  0  0  0  0  0  0  0
   21.4432   15.9540    4.2754 H   0  0  0  0  0  0  0  0  0  0  0  0
   20.5183   17.5042    4.1855 H   0  0  0  0  0  0  0  0  0  0  0  0
   22.1805   17.4750    6.0380 H   0  0  0  0  0  0  0  0  0  0  0  0
   20.4429   17.6444    6.5977 H   0  0  0  0  0  0  0  0  0  0  0  0
   21.2517   14.1372    5.9638 H   0  0  0  0  0  0  0  0  0  0  0  0
   20.4676   14.1171    7.6063 H   0  0  0  0  0  0  0  0  0  0  0  0
   18.6627   15.5397    6.7983 H   0  0  0  0  0  0  0  0  0  0  0  0
   18.8150   14.0604    5.7664 H   0  0  0  0  0  0  0  0  0  0  0  0
   13.4217   12.6613    4.7972 H   0  0  0  0  0  0  0  0  0  0  0  0
   13.0345   13.6979    1.9475 H   0  0  0  0  0  0  0  0  0  0  0  0
   13.7384   12.0999    2.4468 H   0  0  0  0  0  0  0  0  0  0  0  0
   11.2204   12.2765    1.6916 H   0  0  0  0  0  0  0  0  0  0  0  0
   11.7269   11.2473    3.1122 H   0  0  0  0  0  0  0  0  0  0  0  0
    9.6385   12.9713    3.1723 H   0  0  0  0  0  0  0  0  0  0  0  0
   10.6466   12.5111    4.6084 H   0  0  0  0  0  0  0  0  0  0  0  0
   11.0774   14.9625    2.8509 H   0  0  0  0  0  0  0  0  0  0  0  0
   10.2976   14.9536    4.4688 H   0  0  0  0  0  0  0  0  0  0  0  0
   12.7752   15.4431    4.2659 H   0  0  0  0  0  0  0  0  0  0  0  0
   12.1959   14.3238    5.4667 H   0  0  0  0  0  0  0  0  0  0  0  0
  2  1  2  0
  3  2  1  0
  4  3  2  0
  5  4  1  0
  6  5  2  0
  6  1  1  0
  7  6  1  0
  9  1  1  0
  9  8  2  0
 10  9  1  0
 11 10  1  0
 12 11  1  0
 13 12  1  0
 14 13  1  0
 15 10  1  0
 15 14  1  0
 16  4  1  0
 17 16  1  0
 18 17  1  0
 19 18  1  0
 20 19  1  0
 21 20  1  0
 21 16  1  0
  2 22  1  0
  7 23  1  0
  7 24  1  0
  7 25  1  0
 11 26  1  0
 11 27  1  0
 12 28  1  0
 12 29  1  0
 14 30  1  0
 14 31  1  0
 15 32  1  0
 15 33  1  0
 16 34  1  1
 17 35  1  0
 17 36  1  0
 18 37  1  0
 18 38  1  0
 19 39  1  0
 19 40  1  0
 20 41  1  0
 20 42  1  0
 21 43  1  0
 21 44  1  0
M  CHG  1  21   1
M  END
$$$$
=
     RDKit          3D

 26 27  0  0  0  0  0  0  0  0999 V2000
   20.5800   15.0090    6.5770 C   0  0  0  0  0  0  0  0  0  0  0  0
   20.3430   16.0630    5.5390 C   0  0  0  0  0  0  0  0  0  0  0  0
   21.4100   16.8300    5.2130 N   0  0  0  0  0  0  0  0  0  0  0  0
   21.2210   17.7910    4.2810 C   0  0  0  0  0  0  0  0  0  0  0  0
   19.9960   17.9930    3.6770 C   0  0  0  0  0  0  0  0  0  0  0  0
   18.9090   17.2430    3.9810 N   0  0  0  0  0  0  0  0  0  0  0  0
   19.1030   16.2720    4.9310 C   0  0  0  0  0  0  0  0  0  0  0  0
   17.8730   15.4640    5.2550 C   0  0  1  0  0  0  0  0  0  0  0  0
   16.7120   16.2890    5.8040 C   0  0  0  0  0  0  0  0  0  0  0  0
   15.4840   15.5050    5.3750 C   0  0  0  0  0  0  0  0  0  0  0  0
   15.8170   15.0900    3.9570 C   0  0  0  0  0  0  0  0  0  0  0  0
   17.2870   14.8600    3.9850 N   0  0  0  0  0  4  0  0  0  0  0  0
   20.4804   15.4521    7.5789 H   0  0  0  0  0  0  0  0  0  0  0  0
   19.8406   14.2035    6.4571 H   0  0  0  0  0  0  0  0  0  0  0  0
   21.5931   14.5976    6.4571 H   0  0  0  0  0  0  0  0  0  0  0  0
   22.0687   18.4312    3.9953 H   0  0  0  0  0  0  0  0  0  0  0  0
   19.8991   18.7891    2.9241 H   0  0  0  0  0  0  0  0  0  0  0  0
   18.2269   14.7322    5.9961 H   0  0  0  0  0  0  0  0  0  0  0  0
   16.7671   16.3642    6.9000 H   0  0  0  0  0  0  0  0  0  0  0  0
   16.7098   17.3245    5.4328 H   0  0  0  0  0  0  0  0  0  0  0  0
   15.3328   14.6256    6.0183 H   0  0  0  0  0  0  0  0  0  0  0  0
   14.5534   16.0871    5.4471 H   0  0  0  0  0  0  0  0  0  0  0  0
   15.2822   14.1685    3.6835 H   0  0  0  0  0  0  0  0  0  0  0  0
   15.5207   15.8453    3.2142 H   0  0  0  0  0  0  0  0  0  0  0  0
   17.4762   13.8477    3.9676 H   0  0  0  0  0  0  0  0  0  0  0  0
   17.7192   15.3050    3.1628 H   0  0  0  0  0  0  0  0  0  0  0  0
  2  1  1  0
  3  2  2  0
  4  3  1  0
  5  4  2  0
  6  5  1  0
  7  2  1  0
  7  6  2  0
  8  7  1  0
  9  8  1  0
 10  9  1  0
 11 10  1  0
 12 11  1  0
 12  8  1  0
  1 13  1  0
  1 14  1  0
  1 15  1  0
  4 16  1  0
  5 17  1  0
  8 18  1  1
  9 19  1  0
  9 20  1  0
 10 21  1  0
 10 22  1  0
 11 23  1  0
 11 24  1  0
 12 25  1  0
 12 26  1  0
M  CHG  1  12   1
M  END
$$$$
=
     RDKit          3D

 39 41  0  0  0  0  0  0  0  0999 V2000
   28.6840   27.7260   15.7840 C   0  0  1  0  0  0  0  0  0  0  0  0
   28.9130   27.9730   14.2870 N   0  0  0  0  0  4  0  0  0  0  0  0
   29.1640   26.6580   13.6020 C   0  0  1  0  0  0  0  0  0  0  0  0
   29.7570   25.7900   14.7100 C   0  0  1  0  0  0  0  0  0  0  0  0
   29.1830   26.3150   16.0190 C   0  0  2  0  0  0  0  0  0  0  0  0
   28.0790   25.3440   16.3020 C   0  0  0  0  0  0  0  0  0  0  0  0
   27.0710   25.5990   16.9310 O   0  0  0  0  0  0  0  0  0  0  0  0
   28.3850   24.1780   15.6740 N   0  0  0  0  0  0  0  0  0  0  0  0
   29.3000   24.3600   14.6850 C   0  0  0  0  0  0  0  0  0  0  0  0
   29.6450   23.5410   13.8530 O   0  0  0  0  0  0  0  0  0  0  0  0
   27.9440   26.1530   12.8600 C   0  0  0  0  0  0  0  0  0  0  0  0
   26.6250   26.4310   13.2510 C   0  0  0  0  0  0  0  0  0  0  0  0
   25.5460   25.9200   12.5240 C   0  0  0  0  0  0  0  0  0  0  0  0
   25.7490   25.1200   11.4000 C   0  0  0  0  0  0  0  0  0  0  0  0
   27.0500   24.8320   11.0040 C   0  0  0  0  0  0  0  0  0  0  0  0
   28.1350   25.3410   11.7280 C   0  0  0  0  0  0  0  0  0  0  0  0
   24.6040   24.6930   10.7910 O   0  0  0  0  0  0  0  0  0  0  0  0
   23.5650   24.2030   11.6330 C   0  0  0  0  0  0  0  0  0  0  0  0
   29.4460   28.7180   16.6630 C   0  0  0  0  0  0  0  0  0  0  0  0
   30.6060   29.0500   16.4840 O   0  0  0  0  0  0  0  0  0  0  0  0
   28.6190   28.3980   18.8360 C   0  0  0  0  0  0  0  0  0  0  0  0
   28.6220   29.1970   17.6440 O   0  0  0  0  0  0  0  0  0  0  0  0
   27.6249   27.8578   16.0502 H   0  0  0  0  0  0  0  0  0  0  0  0
   28.0790   28.4199   13.8800 H   0  0  0  0  0  0  0  0  0  0  0  0
   29.7268   28.5911   14.1586 H   0  0  0  0  0  0  0  0  0  0  0  0
   29.8738   26.6912   12.7623 H   0  0  0  0  0  0  0  0  0  0  0  0
   30.8497   25.8302   14.5899 H   0  0  0  0  0  0  0  0  0  0  0  0
   29.8870   26.3782   16.8618 H   0  0  0  0  0  0  0  0  0  0  0  0
   27.9731   23.2660   15.9181 H   0  0  0  0  0  0  0  0  0  0  0  0
   26.4388   27.0561   14.1368 H   0  0  0  0  0  0  0  0  0  0  0  0
   24.5196   26.1528   12.8439 H   0  0  0  0  0  0  0  0  0  0  0  0
   27.2276   24.2026   10.1195 H   0  0  0  0  0  0  0  0  0  0  0  0
   29.1585   25.1006   11.4044 H   0  0  0  0  0  0  0  0  0  0  0  0
   23.8521   24.3384   12.6862 H   0  0  0  0  0  0  0  0  0  0  0  0
   22.6372   24.7584   11.4315 H   0  0  0  0  0  0  0  0  0  0  0  0
   23.4034   23.1338   11.4315 H   0  0  0  0  0  0  0  0  0  0  0  0
   28.6215   29.0553   19.7180 H   0  0  0  0  0  0  0  0  0  0  0  0
   27.7185   27.7665   18.8519 H   0  0  0  0  0  0  0  0  0  0  0  0
   29.5148   27.7597   18.8519 H   0  0  0  0  0  0  0  0  0  0  0  0
  2  1  1  0
  3  2  1  0
  4  3  1  0
  5  4  1  0
  5  1  1  0
  6  5  1  0
  7  6  2  0
  8  6  1  0
  9  8  1  0
  9  4  1  0
 10  9  2  0
 11  3  1  0
 12 11  2  0
 13 12  1  0
 14 13  2  0
 15 14  1  0
 16 15  2  0
 16 11  1  0
 17 14  1  0
 18 17  1  0
 19  1  1  0
 20 19  2  0
 22 21  1  0
 22 19  1  0
  1 23  1  6
  2 24  1  0
  2 25  1  0
  3 26  1  6
  4 27  1  1
  5 28  1  1
  8 29  1  0
 12 30  1  0
 13 31  1  0
 15 32  1  0
 16 33  1  0
 18 34  1  0
 18 35  1  0
 18 36  1  0
 21 37  1  0
 21 38  1  0
 21 39  1  0
M  CHG  1   2   1
M  END
$$$$
=
     RDKit          3D

 52 53  0  0  0  0  0  0  0  0999 V2000
   17.5660   16.2800    4.3650 C   0  0  1  0  0  0  0  0  0  0  0  0
   18.5900   15.8600    3.3000 C   0  0  0  0  0  0  0  0  0  0  0  0
   18.4110   14.3510    3.1960 C   0  0  0  0  0  0  0  0  0  0  0  0
   17.0270   14.1330    3.5600 N   0  0  0  0  0  0  0  0  0  0  0  0
   16.3950   15.3390    4.0610 C   0  0  0  0  0  0  0  0  0  0  0  0
   16.3910   12.9430    3.3150 C   0  0  0  0  0  0  0  0  0  0  0  0
   16.9560   11.9640    2.8430 O   0  0  0  0  0  0  0  0  0  0  0  0
   18.0620   16.0790    5.8040 C   0  0  0  0  0  0  0  0  0  0  0  0
   20.0120   17.5970    5.9560 C   0  0  0  0  0  0  0  0  0  0  0  0
   19.3360   18.6240    5.8920 O   0  0  0  0  0  0  0  0  0  0  0  0
   19.4930   16.3280    5.9350 N   0  0  0  0  0  0  0  0  0  0  0  0
   21.5470   17.7280    6.0350 C   0  0  1  0  0  0  0  0  0  0  0  0
   22.1410   16.3450    6.0170 N   0  0  0  0  0  4  0  0  0  0  0  0
   21.6840   18.1850    3.5100 C   0  0  0  0  0  0  0  0  0  0  0  0
   22.1400   18.6010    4.9130 C   0  0  0  0  0  0  0  0  0  0  0  0
   23.6700   18.6320    4.9710 C   0  0  0  0  0  0  0  0  0  0  0  0
   15.0820   12.9940    3.6640 O   0  0  0  0  0  0  0  0  0  0  0  0
   14.1620   12.4330    2.7200 C   0  0  0  0  0  0  0  0  0  0  0  0
   12.7680   12.9020    3.0470 C   0  0  0  0  0  0  0  0  0  0  0  0
   11.6520   12.2930    2.4540 C   0  0  0  0  0  0  0  0  0  0  0  0
   10.3620   12.7180    2.7730 C   0  0  0  0  0  0  0  0  0  0  0  0
   10.1740   13.7480    3.6930 C   0  0  0  0  0  0  0  0  0  0  0  0
   11.2740   14.3510    4.2980 C   0  0  0  0  0  0  0  0  0  0  0  0
   12.5660   13.9280    3.9800 C   0  0  0  0  0  0  0  0  0  0  0  0
   17.3282   17.3529    4.3170 H   0  0  0  0  0  0  0  0  0  0  0  0
   18.3757   16.3470    2.3372 H   0  0  0  0  0  0  0  0  0  0  0  0
   19.6185   16.1484    3.5628 H   0  0  0  0  0  0  0  0  0  0  0  0
   18.6039   14.0048    2.1699 H   0  0  0  0  0  0  0  0  0  0  0  0
   19.1092   13.7979    3.8415 H   0  0  0  0  0  0  0  0  0  0  0  0
   15.7309   15.7759    3.3007 H   0  0  0  0  0  0  0  0  0  0  0  0
   15.7671   15.1495    4.9441 H   0  0  0  0  0  0  0  0  0  0  0  0
   17.5203   16.7715    6.4651 H   0  0  0  0  0  0  0  0  0  0  0  0
   17.8755   15.0310    6.0814 H   0  0  0  0  0  0  0  0  0  0  0  0
   20.1338   15.5255    6.0142 H   0  0  0  0  0  0  0  0  0  0  0  0
   21.8020   18.2451    6.9718 H   0  0  0  0  0  0  0  0  0  0  0  0
   22.2811   16.0189    6.9839 H   0  0  0  0  0  0  0  0  0  0  0  0
   21.5015   15.7030    5.5274 H   0  0  0  0  0  0  0  0  0  0  0  0
   23.0469   16.3668    5.5274 H   0  0  0  0  0  0  0  0  0  0  0  0
   20.8736   17.4457    3.5920 H   0  0  0  0  0  0  0  0  0  0  0  0
   21.3202   19.0689    2.9656 H   0  0  0  0  0  0  0  0  0  0  0  0
   22.5309   17.7419    2.9656 H   0  0  0  0  0  0  0  0  0  0  0  0
   21.7485   19.6123    5.0973 H   0  0  0  0  0  0  0  0  0  0  0  0
   23.9971   18.6386    6.0212 H   0  0  0  0  0  0  0  0  0  0  0  0
   24.0742   17.7419    4.4667 H   0  0  0  0  0  0  0  0  0  0  0  0
   24.0378   19.5378    4.4667 H   0  0  0  0  0  0  0  0  0  0  0  0
   14.4314   12.7601    1.7049 H   0  0  0  0  0  0  0  0  0  0  0  0
   14.2038   11.3350    2.7714 H   0  0  0  0  0  0  0  0  0  0  0  0
   11.7950   11.4749    1.7327 H   0  0  0  0  0  0  0  0  0  0  0  0
    9.4926   12.2398    2.2981 H   0  0  0  0  0  0  0  0  0  0  0  0
    9.1566   14.0847    3.9413 H   0  0  0  0  0  0  0  0  0  0  0  0
   11.1248   15.1612    5.0270 H   0  0  0  0  0  0  0  0  0  0  0  0
   13.4313   14.4033    4.4651 H   0  0  0  0  0  0  0  0  0  0  0  0
  2  1  1  0
  3  2  1  0
  4  3  1  0
  5  4  1  0
  5  1  1  0
  6  4  1  0
  7  6  2  0
  8  1  1  0
 10  9  2  0
 11  8  1  0
 11  9  1  0
 12  9  1  0
 13 12  1  0
 15 14  1  0
 15 12  1  0
 16 15  1  0
 17  6  1  0
 18 17  1  0
 19 18  1  0
 20 19  2  0
 21 20  1  0
 22 21  2  0
 23 22  1  0
 24 23  2  0
 24 19  1  0
  1 25  1  6
  2 26  1  0
  2 27  1  0
  3 28  1  0
  3 29  1  0
  5 30  1  0
  5 31  1  0
  8 32  1  0
  8 33  1  0
 11 34  1  0
 12 35  1  1
 13 36  1  0
 13 37  1  0
 13 38  1  0
 14 39  1  0
 14 40  1  0
 14 41  1  0
 15 42  1  0
 16 43  1  0
 16 44  1  0
 16 45  1  0
 18 46  1  0
 18 47  1  0
 20 48  1  0
 21 49  1  0
 22 50  1  0
 23 51  1  0
 24 52  1  0
M  CHG  1  13   1
M  END
$$$$
=
     RDKit          3D

 40 41  0  0  0  0  0  0  0  0999 V2000
   17.2350   15.2610    3.8090 C   0  0  2  0  0  0  0  0  0  0  0  0
   16.4930   15.5830    5.1240 C   0  0  0  0  0  0  0  0  0  0  0  0
   14.9480   15.5910    5.0300 C   0  0  0  0  0  0  0  0  0  0  0  0
   14.4620   14.7130    3.8950 C   0  0  1  0  0  0  0  0  0  0  0  0
   15.3820   13.4970    3.7390 C   0  0  2  0  0  0  0  0  0  0  0  0
   16.7130   13.9090    3.2310 N   0  0  0  0  0  4  0  0  0  0  0  0
   14.5610   12.6260    2.8160 C   0  0  0  0  0  0  0  0  0  0  0  0
   13.1530   12.7400    3.4250 C   0  0  0  0  0  0  0  0  0  0  0  0
   13.1060   14.1210    4.0630 N   0  0  0  0  0  4  0  0  0  0  0  0
   19.5140   14.4980    3.4580 O   0  0  0  0  0  0  0  0  0  0  0  0
   18.7530   15.2500    4.0360 C   0  0  0  0  0  0  0  0  0  0  0  0
   19.0770   16.2130    4.9470 O   0  0  0  0  0  0  0  0  0  0  0  0
   19.8680   17.3710    4.5390 C   0  0  0  0  0  0  0  0  0  0  0  0
   19.5460   17.7780    3.0970 C   0  0  0  0  0  0  0  0  0  0  0  0
   21.3660   17.1190    4.7450 C   0  0  0  0  0  0  0  0  0  0  0  0
   19.4210   18.4960    5.4820 C   0  0  0  0  0  0  0  0  0  0  0  0
   17.0298   16.0461    3.0663 H   0  0  0  0  0  0  0  0  0  0  0  0
   16.7836   14.8295    5.8709 H   0  0  0  0  0  0  0  0  0  0  0  0
   16.7855   16.6086    5.3936 H   0  0  0  0  0  0  0  0  0  0  0  0
   14.5293   15.2180    5.9764 H   0  0  0  0  0  0  0  0  0  0  0  0
   14.6167   16.6222    4.8381 H   0  0  0  0  0  0  0  0  0  0  0  0
   14.4503   15.4023    3.0379 H   0  0  0  0  0  0  0  0  0  0  0  0
   15.6485   12.9607    4.6617 H   0  0  0  0  0  0  0  0  0  0  0  0
   17.3916   13.1725    3.4720 H   0  0  0  0  0  0  0  0  0  0  0  0
   16.6102   14.0445    2.2151 H   0  0  0  0  0  0  0  0  0  0  0  0
   14.5812   13.0083    1.7848 H   0  0  0  0  0  0  0  0  0  0  0  0
   14.9277   11.5914    2.7444 H   0  0  0  0  0  0  0  0  0  0  0  0
   12.3855   12.6502    2.6421 H   0  0  0  0  0  0  0  0  0  0  0  0
   12.9548   11.9421    4.1558 H   0  0  0  0  0  0  0  0  0  0  0  0
   12.4016   14.7065    3.5918 H   0  0  0  0  0  0  0  0  0  0  0  0
   12.8469   14.0621    5.0581 H   0  0  0  0  0  0  0  0  0  0  0  0
   18.8635   18.6407    3.1032 H   0  0  0  0  0  0  0  0  0  0  0  0
   20.4760   18.0500    2.5764 H   0  0  0  0  0  0  0  0  0  0  0  0
   19.0673   16.9355    2.5764 H   0  0  0  0  0  0  0  0  0  0  0  0
   21.5869   17.0818    5.8220 H   0  0  0  0  0  0  0  0  0  0  0  0
   21.6440   16.1615    4.2804 H   0  0  0  0  0  0  0  0  0  0  0  0
   21.9420   17.9329    4.2804 H   0  0  0  0  0  0  0  0  0  0  0  0
   19.5495   18.1725    6.5255 H   0  0  0  0  0  0  0  0  0  0  0  0
   20.0312   19.3926    5.2983 H   0  0  0  0  0  0  0  0  0  0  0  0
   18.3618   18.7293    5.2983 H   0  0  0  0  0  0  0  0  0  0  0  0
  2  1  1  0
  3  2  1  0
  4  3  1  0
  5  4  1  0
  6  5  1  0
  6  1  1  0
  7  5  1  0
  8  7  1  0
  9  8  1  0
  9  4  1  0
 11 10  2  0
 11  1  1  0
 12 11  1  0
 13 12  1  0
 14 13  1  0
 15 13  1  0
 16 13  1  0
  1 17  1  6
  2 18  1  0
  2 19  1  0
  3 20  1  0
  3 21  1  0
  4 22  1  6
  5 23  1  1
  6 24  1  0
  6 25  1  0
  7 26  1  0
  7 27  1  0
  8 28  1  0
  8 29  1  0
  9 30  1  0
  9 31  1  0
 14 32  1  0
 14 33  1  0
 14 34  1  0
 15 35  1  0
 15 36  1  0
 15 37  1  0
 16 38  1  0
 16 39  1  0
 16 40  1  0
M  CHG  2   6   1   9   1
M  END
$$$$
=
     RDKit          3D

 46 48  0  0  0  0  0  0  0  0999 V2000
   19.1340   15.1240    2.9600 O   0  0  0  0  0  0  0  0  0  0  0  0
   18.4750   15.4900    3.9420 C   0  0  0  0  0  0  0  0  0  0  0  0
   17.1800   15.0180    4.1400 N   0  0  0  0  0  0  0  0  0  0  0  0
   16.1120   15.8020    4.7560 C   0  0  0  0  0  0  0  0  0  0  0  0
   16.3780   16.1360    6.1820 C   0  0  0  0  0  0  0  0  0  0  0  0
   17.3560   16.9660    6.5610 C   0  0  0  0  0  0  0  0  0  0  0  0
   18.3460   17.4920    5.5700 C   0  0  0  0  0  0  0  0  0  0  0  0
   19.2000   16.3350    5.0360 C   0  0  2  0  0  0  0  0  0  0  0  0
   20.6000   16.8030    4.4820 C   0  0  0  0  0  0  0  0  0  0  0  0
   21.7660   16.2850    5.3740 C   0  0  0  0  0  0  0  0  0  0  0  0
   22.4790   17.3830    6.1410 C   0  0  0  0  0  0  0  0  0  0  0  0
   23.0370   18.3860    5.1890 N   0  0  0  0  0  4  0  0  0  0  0  0
   22.1840   18.7260    4.0100 C   0  0  0  0  0  0  0  0  0  0  0  0
   20.7380   18.3230    4.2560 C   0  0  0  0  0  0  0  0  0  0  0  0
   16.7060   13.9960    3.1920 C   0  0  0  0  0  0  0  0  0  0  0  0
   15.2870   13.5270    3.4420 C   0  0  0  0  0  0  0  0  0  0  0  0
   14.9970   12.1570    3.5370 C   0  0  0  0  0  0  0  0  0  0  0  0
   13.6940   11.7200    3.7770 C   0  0  0  0  0  0  0  0  0  0  0  0
   12.6630   12.6460    3.9240 C   0  0  0  0  0  0  0  0  0  0  0  0
   12.9350   14.0080    3.8270 C   0  0  0  0  0  0  0  0  0  0  0  0
   14.2380   14.4470    3.5860 C   0  0  0  0  0  0  0  0  0  0  0  0
   15.9972   16.7398    4.1927 H   0  0  0  0  0  0  0  0  0  0  0  0
   15.1989   15.1893    4.7284 H   0  0  0  0  0  0  0  0  0  0  0  0
   15.7435   15.6810    6.9568 H   0  0  0  0  0  0  0  0  0  0  0  0
   17.4336   17.2662    7.6164 H   0  0  0  0  0  0  0  0  0  0  0  0
   17.8112   17.9685    4.7352 H   0  0  0  0  0  0  0  0  0  0  0  0
   18.9964   18.2320    6.0593 H   0  0  0  0  0  0  0  0  0  0  0  0
   19.3667   15.6974    5.9167 H   0  0  0  0  0  0  0  0  0  0  0  0
   20.6636   16.3464    3.4832 H   0  0  0  0  0  0  0  0  0  0  0  0
   21.3565   15.5649    6.0978 H   0  0  0  0  0  0  0  0  0  0  0  0
   22.5072   15.8278    4.7020 H   0  0  0  0  0  0  0  0  0  0  0  0
   21.7660   17.8783    6.8165 H   0  0  0  0  0  0  0  0  0  0  0  0
   23.2999   16.9424    6.7257 H   0  0  0  0  0  0  0  0  0  0  0  0
   23.2079   19.2556    5.7139 H   0  0  0  0  0  0  0  0  0  0  0  0
   23.8851   17.9514    4.7981 H   0  0  0  0  0  0  0  0  0  0  0  0
   22.2309   19.8104    3.8316 H   0  0  0  0  0  0  0  0  0  0  0  0
   22.5589   18.1774    3.1334 H   0  0  0  0  0  0  0  0  0  0  0  0
   20.1344   18.6098    3.3823 H   0  0  0  0  0  0  0  0  0  0  0  0
   20.3880   18.8378    5.1629 H   0  0  0  0  0  0  0  0  0  0  0  0
   16.7563   14.4172    2.1771 H   0  0  0  0  0  0  0  0  0  0  0  0
   17.3564   13.1185    3.3221 H   0  0  0  0  0  0  0  0  0  0  0  0
   15.8055   11.4202    3.4210 H   0  0  0  0  0  0  0  0  0  0  0  0
   13.4802   10.6435    3.8503 H   0  0  0  0  0  0  0  0  0  0  0  0
   11.6362   12.3015    4.1163 H   0  0  0  0  0  0  0  0  0  0  0  0
   12.1215   14.7396    3.9405 H   0  0  0  0  0  0  0  0  0  0  0  0
   14.4441   15.5247    3.5083 H   0  0  0  0  0  0  0  0  0  0  0  0
  2  1  2  0
  3  2  1  0
  4  3  1  0
  5  4  1  0
  6  5  2  0
  7  6  1  0
  8  2  1  0
  8  7  1  0
  9  8  1  0
 10  9  1  0
 11 10  1  0
 12 11  1  0
 13 12  1  0
 14  9  1  0
 14 13  1  0
 15  3  1  0
 16 15  1  0
 17 16  2  0
 18 17  1  0
 19 18  2  0
 20 19  1  0
 21 20  2  0
 21 16  1  0
  4 22  1  0
  4 23  1  0
  5 24  1  0
  6 25  1  0
  7 26  1  0
  7 27  1  0
  8 28  1  1
  9 29  1  0
 10 30  1  0
 10 31  1  0
 11 32  1  0
 11 33  1  0
 12 34  1  0
 12 35  1  0
 13 36  1  0
 13 37  1  0
 14 38  1  0
 14 39  1  0
 15 40  1  0
 15 41  1  0
 17 42  1  0
 18 43  1  0
 19 44  1  0
 20 45  1  0
 21 46  1  0
M  CHG  1  12   1
M  END
$$$$
=
     RDKit          3D

 42 43  0  0  0  0  0  0  0  0999 V2000
   28.5560   23.6050   12.1340 C   0  0  0  0  0  0  0  0  0  0  0  0
   29.0390   24.7880   12.9830 C   0  0  2  0  0  0  0  0  0  0  0  0
   29.3920   24.2560   14.3750 C   0  0  0  0  0  0  0  0  0  0  0  0
   30.1340   25.3240   15.1690 C   0  0  1  0  0  0  0  0  0  0  0  0
   29.6160   26.7220   14.9590 C   0  0  0  0  0  0  0  0  0  0  0  0
   28.6140   26.9930   14.0040 C   0  0  0  0  0  0  0  0  0  0  0  0
   28.1140   25.9290   13.1680 N   0  0  0  0  0  0  0  0  0  0  0  0
   26.9070   26.0180   12.4570 C   0  0  0  0  0  0  0  0  0  0  0  0
   26.6490   25.3730   11.4500 O   0  0  0  0  0  0  0  0  0  0  0  0
   28.1900   28.3220   13.8430 C   0  0  0  0  0  0  0  0  0  0  0  0
   28.7250   29.3570   14.6130 C   0  0  0  0  0  0  0  0  0  0  0  0
   29.7170   29.0880   15.5440 C   0  0  0  0  0  0  0  0  0  0  0  0
   30.1710   27.7830   15.7080 C   0  0  0  0  0  0  0  0  0  0  0  0
   30.0720   24.9150   16.6070 N   0  0  0  0  0  4  0  0  0  0  0  0
   26.0000   26.8310   13.0660 O   0  0  0  0  0  0  0  0  0  0  0  0
   24.8740   26.2900   13.8110 C   0  0  0  0  0  0  0  0  0  0  0  0
   23.5590   26.4740   13.0470 C   0  0  0  0  0  0  0  0  0  0  0  0
   24.8200   27.1360   15.0920 C   0  0  0  0  0  0  0  0  0  0  0  0
   25.1170   24.8280   14.2010 C   0  0  0  0  0  0  0  0  0  0  0  0
   28.2236   22.7909   12.7949 H   0  0  0  0  0  0  0  0  0  0  0  0
   27.7175   23.9274   11.4992 H   0  0  0  0  0  0  0  0  0  0  0  0
   29.3805   23.2484   11.4992 H   0  0  0  0  0  0  0  0  0  0  0  0
   29.8827   25.2018   12.4113 H   0  0  0  0  0  0  0  0  0  0  0  0
   28.4679   23.9838   14.9059 H   0  0  0  0  0  0  0  0  0  0  0  0
   30.0369   23.3711   14.2702 H   0  0  0  0  0  0  0  0  0  0  0  0
   31.1728   25.3785   14.8113 H   0  0  0  0  0  0  0  0  0  0  0  0
   27.4189   28.5531   13.0933 H   0  0  0  0  0  0  0  0  0  0  0  0
   28.3594   30.3860   14.4810 H   0  0  0  0  0  0  0  0  0  0  0  0
   30.1426   29.9018   16.1495 H   0  0  0  0  0  0  0  0  0  0  0  0
   30.9734   27.5748   16.4311 H   0  0  0  0  0  0  0  0  0  0  0  0
   30.1976   25.7439   17.2054 H   0  0  0  0  0  0  0  0  0  0  0  0
   29.1563   24.4858   16.8027 H   0  0  0  0  0  0  0  0  0  0  0  0
   30.8193   24.2338   16.8027 H   0  0  0  0  0  0  0  0  0  0  0  0
   22.7320   26.5897   13.7630 H   0  0  0  0  0  0  0  0  0  0  0  0
   23.6248   27.3717   12.4147 H   0  0  0  0  0  0  0  0  0  0  0  0
   23.3759   25.5927   12.4147 H   0  0  0  0  0  0  0  0  0  0  0  0
   24.8622   26.4748   15.9701 H   0  0  0  0  0  0  0  0  0  0  0  0
   25.6759   27.8267   15.1116 H   0  0  0  0  0  0  0  0  0  0  0  0
   23.8832   27.7123   15.1116 H   0  0  0  0  0  0  0  0  0  0  0  0
   25.1319   24.7386   15.2973 H   0  0  0  0  0  0  0  0  0  0  0  0
   24.3108   24.2008   13.7928 H   0  0  0  0  0  0  0  0  0  0  0  0
   26.0828   24.4953   13.7928 H   0  0  0  0  0  0  0  0  0  0  0  0
  2  1  1  0
  3  2  1  0
  4  3  1  0
  5  4  1  0
  6  5  2  0
  7  6  1  0
  7  2  1  0
  8  7  1  0
  9  8  2  0
 10  6  1  0
 11 10  2  0
 12 11  1  0
 13  5  1  0
 13 12  2  0
 14  4  1  0
 15  8  1  0
 16 15  1  0
 17 16  1  0
 18 16  1  0
 19 16  1  0
  1 20  1  0
  1 21  1  0
  1 22  1  0
  2 23  1  6
  3 24  1  0
  3 25  1  0
  4 26  1  6
 10 27  1  0
 11 28  1  0
 12 29  1  0
 13 30  1  0
 14 31  1  0
 14 32  1  0
 14 33  1  0
 17 34  1  0
 17 35  1  0
 17 36  1  0
 18 37  1  0
 18 38  1  0
 18 39  1  0
 19 40  1  0
 19 41  1  0
 19 42  1  0
M  CHG  1  14   1
M  END
$$$$
=
     RDKit          3D

 33 34  0  0  0  0  0  0  0  0999 V2000
   15.0390   14.7800    4.1500 C   0  0  0  0  0  0  0  0  0  0  0  0
   15.1510   15.2420    5.4640 C   0  0  0  0  0  0  0  0  0  0  0  0
   16.3610   15.7540    5.9520 C   0  0  0  0  0  0  0  0  0  0  0  0
   17.4770   15.8100    5.1220 C   0  0  0  0  0  0  0  0  0  0  0  0
   17.3650   15.3480    3.8080 C   0  0  0  0  0  0  0  0  0  0  0  0
   16.1560   14.8370    3.3210 C   0  0  0  0  0  0  0  0  0  0  0  0
   13.8020   14.3110    3.8200 O   0  0  0  0  0  0  0  0  0  0  0  0
   13.2630   12.5950    2.4150 F   0  0  0  0  0  0  0  0  0  0  0  0
   13.6420   12.9090    3.6720 C   0  0  0  0  0  0  0  0  0  0  0  0
   14.7870   12.2600    3.9720 F   0  0  0  0  0  0  0  0  0  0  0  0
   12.6810   12.4890    4.5220 F   0  0  0  0  0  0  0  0  0  0  0  0
   18.7180   16.2710    5.4550 O   0  0  0  0  0  0  0  0  0  0  0  0
   19.7150   16.4040    4.4370 C   0  0  0  0  0  0  0  0  0  0  0  0
   20.9310   15.5980    4.9090 C   0  0  0  0  0  0  0  0  0  0  0  0
   21.5140   16.1690    6.1930 C   0  0  0  0  0  0  0  0  0  0  0  0
   21.8450   17.6120    5.9900 N   0  0  0  0  0  4  0  0  0  0  0  0
   20.6780   18.4430    5.5630 C   0  0  0  0  0  0  0  0  0  0  0  0
   20.1000   17.8780    4.2750 C   0  0  0  0  0  0  0  0  0  0  0  0
   14.2741   15.2032    6.1270 H   0  0  0  0  0  0  0  0  0  0  0  0
   16.4287   16.1113    6.9901 H   0  0  0  0  0  0  0  0  0  0  0  0
   18.2418   15.3865    3.1449 H   0  0  0  0  0  0  0  0  0  0  0  0
   16.0886   14.4803    2.2826 H   0  0  0  0  0  0  0  0  0  0  0  0
   19.3458   16.0392    3.4671 H   0  0  0  0  0  0  0  0  0  0  0  0
   20.6225   14.5575    5.0883 H   0  0  0  0  0  0  0  0  0  0  0  0
   21.7031   15.6483    4.1271 H   0  0  0  0  0  0  0  0  0  0  0  0
   20.7782   16.0721    7.0049 H   0  0  0  0  0  0  0  0  0  0  0  0
   22.4274   15.6167    6.4588 H   0  0  0  0  0  0  0  0  0  0  0  0
   22.2062   17.9905    6.8772 H   0  0  0  0  0  0  0  0  0  0  0  0
   22.5398   17.6571    5.2310 H   0  0  0  0  0  0  0  0  0  0  0  0
   19.9085   18.4264    6.3489 H   0  0  0  0  0  0  0  0  0  0  0  0
   21.0067   19.4792    5.3948 H   0  0  0  0  0  0  0  0  0  0  0  0
   20.8510   17.9664    3.4762 H   0  0  0  0  0  0  0  0  0  0  0  0
   19.1937   18.4477    4.0220 H   0  0  0  0  0  0  0  0  0  0  0  0
  2  1  2  0
  3  2  1  0
  4  3  2  0
  5  4  1  0
  6  1  1  0
  6  5  2  0
  7  1  1  0
  9  8  1  0
  9  7  1  0
 10  9  1  0
 11  9  1  0
 12  4  1  0
 13 12  1  0
 14 13  1  0
 15 14  1  0
 16 15  1  0
 17 16  1  0
 18 13  1  0
 18 17  1  0
  2 19  1  0
  3 20  1  0
  5 21  1  0
  6 22  1  0
 13 23  1  0
 14 24  1  0
 14 25  1  0
 15 26  1  0
 15 27  1  0
 16 28  1  0
 16 29  1  0
 17 30  1  0
 17 31  1  0
 18 32  1  0
 18 33  1  0
M  CHG  1  16   1
M  END
$$$$
=
     RDKit          3D

 37 37  0  0  0  0  0  0  0  0999 V2000
   17.4000   13.9990    3.5730 C   0  0  0  0  0  0  0  0  0  0  0  0
   17.2230   12.7330    2.9950 C   0  0  0  0  0  0  0  0  0  0  0  0
   15.9430   12.2330    2.7740 C   0  0  0  0  0  0  0  0  0  0  0  0
   14.8290   12.9730    3.1650 C   0  0  0  0  0  0  0  0  0  0  0  0
   14.9760   14.2390    3.7510 C   0  0  0  0  0  0  0  0  0  0  0  0
   16.2650   14.7760    3.8760 C   0  0  0  0  0  0  0  0  0  0  0  0
   13.7360   14.9500    4.2190 C   0  0  0  0  0  0  0  0  0  0  0  0
   18.7820   14.4640    3.9360 C   0  0  0  0  0  0  0  0  0  0  0  0
   19.2590   15.4980    2.9670 N   0  0  0  0  0  4  0  0  0  0  0  0
   19.5540   17.9530    2.9660 C   0  0  0  0  0  0  0  0  0  0  0  0
   20.0440   16.6310    3.5180 C   0  0  0  0  0  0  0  0  0  0  0  0
   16.4420   16.0270    4.4190 O   0  0  0  0  0  0  0  0  0  0  0  0
   17.1220   15.9740    5.6970 C   0  0  0  0  0  0  0  0  0  0  0  0
   16.1080   15.4560    6.7140 C   0  0  0  0  0  0  0  0  0  0  0  0
   17.6110   17.3530    6.1290 C   0  0  0  0  0  0  0  0  0  0  0  0
   18.1008   12.1321    2.7149 H   0  0  0  0  0  0  0  0  0  0  0  0
   15.8109   11.2537    2.2907 H   0  0  0  0  0  0  0  0  0  0  0  0
   13.8213   12.5591    3.0122 H   0  0  0  0  0  0  0  0  0  0  0  0
   13.7137   14.9628    5.3187 H   0  0  0  0  0  0  0  0  0  0  0  0
   13.7405   15.9827    3.8403 H   0  0  0  0  0  0  0  0  0  0  0  0
   12.8470   14.4244    3.8403 H   0  0  0  0  0  0  0  0  0  0  0  0
   18.7642   14.8966    4.9472 H   0  0  0  0  0  0  0  0  0  0  0  0
   19.4665   13.6036    3.9031 H   0  0  0  0  0  0  0  0  0  0  0  0
   19.8494   15.0214    2.2704 H   0  0  0  0  0  0  0  0  0  0  0  0
   18.4011   15.9265    2.5912 H   0  0  0  0  0  0  0  0  0  0  0  0
   19.3039   18.6277    3.7980 H   0  0  0  0  0  0  0  0  0  0  0  0
   20.3432   18.4080    2.3495 H   0  0  0  0  0  0  0  0  0  0  0  0
   18.6589   17.7837    2.3495 H   0  0  0  0  0  0  0  0  0  0  0  0
   19.9426   16.6393    4.6133 H   0  0  0  0  0  0  0  0  0  0  0  0
   21.0970   16.5001    3.2282 H   0  0  0  0  0  0  0  0  0  0  0  0
   18.0045   15.3214    5.6242 H   0  0  0  0  0  0  0  0  0  0  0  0
   16.4797   15.6459    7.7317 H   0  0  0  0  0  0  0  0  0  0  0  0
   15.1483   15.9743    6.5715 H   0  0  0  0  0  0  0  0  0  0  0  0
   15.9654   14.3746    6.5715 H   0  0  0  0  0  0  0  0  0  0  0  0
   17.6304   17.4076    7.2275 H   0  0  0  0  0  0  0  0  0  0  0  0
   18.6241   17.5227    5.7355 H   0  0  0  0  0  0  0  0  0  0  0  0
   16.9311   18.1230    5.7355 H   0  0  0  0  0  0  0  0  0  0  0  0
  2  1  2  0
  3  2  1  0
  4  3  2  0
  5  4  1  0
  6  5  2  0
  6  1  1  0
  7  5  1  0
  8  1  1  0
  9  8  1  0
 11  9  1  0
 11 10  1  0
 12  6  1  0
 13 12  1  0
 14 13  1  0
 15 13  1  0
  2 16  1  0
  3 17  1  0
  4 18  1  0
  7 19  1  0
  7 20  1  0
  7 21  1  0
  8 22  1  0
  8 23  1  0
  9 24  1  0
  9 25  1  0
 10 26  1  0
 10 27  1  0
 10 28  1  0
 11 29  1  0
 11 30  1  0
 13 31  1  0
 14 32  1  0
 14 33  1  0
 14 34  1  0
 15 35  1  0
 15 36  1  0
 15 37  1  0
M  CHG  1   9   1
M  END
$$$$
=
     RDKit          3D

 30 32  0  0  0  0  0  0  0  0999 V2000
   18.0870   16.5120    4.5310 N   0  0  0  0  0  0  0  0  0  0  0  0
   19.2380   16.2120    5.3100 C   0  0  0  0  0  0  0  0  0  0  0  0
   19.1860   15.2090    6.2070 N   0  0  0  0  0  0  0  0  0  0  0  0
   20.2820   14.9980    6.9390 C   0  0  0  0  0  0  0  0  0  0  0  0
   21.4270   15.6850    6.8690 N   0  0  0  0  0  0  0  0  0  0  0  0
   21.4780   16.6690    5.9680 C   0  0  0  0  0  0  0  0  0  0  0  0
   20.4000   16.9920    5.1320 C   0  0  0  0  0  0  0  0  0  0  0  0
   20.5450   18.0400    4.1840 C   0  0  0  0  0  0  0  0  0  0  0  0
   21.7350   18.7590    4.0890 C   0  0  0  0  0  0  0  0  0  0  0  0
   22.7910   18.4420    4.9290 C   0  0  0  0  0  0  0  0  0  0  0  0
   22.6530   17.4030    5.8540 C   0  0  0  0  0  0  0  0  0  0  0  0
   15.8310   13.8470    3.2270 C   0  0  0  0  0  0  0  0  0  0  0  0
   14.7190   14.0090    4.0530 C   0  0  0  0  0  0  0  0  0  0  0  0
   14.6850   15.0350    4.9960 C   0  0  0  0  0  0  0  0  0  0  0  0
   15.7800   15.8900    5.1420 C   0  0  0  0  0  0  0  0  0  0  0  0
   16.9200   15.7360    4.3480 C   0  0  0  0  0  0  0  0  0  0  0  0
   16.9440   14.6720    3.4280 C   0  0  0  0  0  0  0  0  0  0  0  0
   15.9170   12.7380    2.3730 N   0  0  0  0  0  0  0  0  0  0  0  0
   18.1062   17.4142    4.0344 H   0  0  0  0  0  0  0  0  0  0  0  0
   20.2391   14.1786    7.6717 H   0  0  0  0  0  0  0  0  0  0  0  0
   19.7068   18.2873    3.5160 H   0  0  0  0  0  0  0  0  0  0  0  0
   21.8354   19.5710    3.3538 H   0  0  0  0  0  0  0  0  0  0  0  0
   23.7337   19.0056    4.8680 H   0  0  0  0  0  0  0  0  0  0  0  0
   23.5001   17.1588    6.5118 H   0  0  0  0  0  0  0  0  0  0  0  0
   13.8640   13.3233    3.9598 H   0  0  0  0  0  0  0  0  0  0  0  0
   13.7940   15.1717    5.6265 H   0  0  0  0  0  0  0  0  0  0  0  0
   15.7447   16.6946    5.8913 H   0  0  0  0  0  0  0  0  0  0  0  0
   17.8615   14.4833    2.8513 H   0  0  0  0  0  0  0  0  0  0  0  0
   16.7389   12.6198    1.7636 H   0  0  0  0  0  0  0  0  0  0  0  0
   15.1583   12.0417    2.3552 H   0  0  0  0  0  0  0  0  0  0  0  0
  2  1  1  0
  3  2  2  0
  4  3  1  0
  5  4  2  0
  6  5  1  0
  7  2  1  0
  7  6  2  0
  8  7  1  0
  9  8  2  0
 10  9  1  0
 11  6  1  0
 11 10  2  0
 13 12  2  0
 14 13  1  0
 15 14  2  0
 16 15  1  0
 16  1  1  0
 17 12  1  0
 17 16  2  0
 18 12  1  0
  1 19  1  0
  4 20  1  0
  8 21  1  0
  9 22  1  0
 10 23  1  0
 11 24  1  0
 13 25  1  0
 14 26  1  0
 15 27  1  0
 17 28  1  0
 18 29  1  0
 18 30  1  0
M  END
$$$$
=
     RDKit          3D

 32 33  0  0  0  0  0  0  0  0999 V2000
   16.2670   13.9480    3.5480 C   0  0  0  0  0  0  0  0  0  0  0  0
   14.9050   14.1920    3.7450 C   0  0  0  0  0  0  0  0  0  0  0  0
   14.4960   15.3270    4.4420 C   0  0  0  0  0  0  0  0  0  0  0  0
   15.4440   16.2070    4.9660 C   0  0  0  0  0  0  0  0  0  0  0  0
   16.8160   15.9600    4.8000 C   0  0  0  0  0  0  0  0  0  0  0  0
   17.2200   14.8280    4.0770 C   0  0  0  0  0  0  0  0  0  0  0  0
   17.9950   12.3880    2.8450 N   0  0  0  0  0  0  0  0  0  0  0  0
   16.6690   12.7220    2.8160 C   0  0  0  0  0  0  0  0  0  0  0  0
   15.8560   12.0520    2.1960 O   0  0  0  0  0  0  0  0  0  0  0  0
   17.8360   16.8740    5.4310 C   0  0  0  0  0  0  0  0  0  0  0  0
   19.1750   16.8390    4.6880 C   0  0  2  0  0  0  0  0  0  0  0  0
   20.3170   16.3660    5.5750 C   0  0  0  0  0  0  0  0  0  0  0  0
   21.5490   16.8910    4.8930 N   0  0  0  0  0  4  0  0  0  0  0  0
   21.1360   17.9440    3.9030 C   0  0  0  0  0  0  0  0  0  0  0  0
   19.6760   18.2030    4.2210 C   0  0  0  0  0  0  0  0  0  0  0  0
   14.1569   13.4888    3.3503 H   0  0  0  0  0  0  0  0  0  0  0  0
   13.4237   15.5299    4.5795 H   0  0  0  0  0  0  0  0  0  0  0  0
   15.1134   17.1018    5.5138 H   0  0  0  0  0  0  0  0  0  0  0  0
   18.2913   14.6301    3.9245 H   0  0  0  0  0  0  0  0  0  0  0  0
   18.3248   11.5458    2.3522 H   0  0  0  0  0  0  0  0  0  0  0  0
   18.6637   12.9787    3.3596 H   0  0  0  0  0  0  0  0  0  0  0  0
   17.4482   17.9033    5.4158 H   0  0  0  0  0  0  0  0  0  0  0  0
   18.0098   16.5296    6.4611 H   0  0  0  0  0  0  0  0  0  0  0  0
   18.9486   16.1693    3.8452 H   0  0  0  0  0  0  0  0  0  0  0  0
   20.2234   16.7832    6.5885 H   0  0  0  0  0  0  0  0  0  0  0  0
   20.3338   15.2728    5.6964 H   0  0  0  0  0  0  0  0  0  0  0  0
   22.1844   17.3017    5.5919 H   0  0  0  0  0  0  0  0  0  0  0  0
   22.0373   16.1243    4.4087 H   0  0  0  0  0  0  0  0  0  0  0  0
   21.7322   18.8589    4.0354 H   0  0  0  0  0  0  0  0  0  0  0  0
   21.2898   17.6258    2.8613 H   0  0  0  0  0  0  0  0  0  0  0  0
   19.5728   18.9551    5.0171 H   0  0  0  0  0  0  0  0  0  0  0  0
   19.1114   18.6006    3.3648 H   0  0  0  0  0  0  0  0  0  0  0  0
  2  1  2  0
  3  2  1  0
  4  3  2  0
  5  4  1  0
  6  1  1  0
  6  5  2  0
  8  1  1  0
  8  7  1  0
  9  8  2  0
 10  5  1  0
 11 10  1  0
 12 11  1  0
 13 12  1  0
 14 13  1  0
 15 14  1  0
 15 11  1  0
  2 16  1  0
  3 17  1  0
  4 18  1  0
  6 19  1  0
  7 20  1  0
  7 21  1  0
 10 22  1  0
 10 23  1  0
 11 24  1  6
 12 25  1  0
 12 26  1  0
 13 27  1  0
 13 28  1  0
 14 29  1  0
 14 30  1  0
 15 31  1  0
 15 32  1  0
M  CHG  1  13   1
M  END
$$$$
=
     RDKit          3D

 44 45  0  0  0  0  0  0  0  0999 V2000
   18.7920   15.9990    4.4650 N   0  0  0  0  0  4  0  0  0  0  0  0
   19.2780   17.1330    3.5970 C   0  0  0  0  0  0  0  0  0  0  0  0
   20.2640   17.9940    4.3760 C   0  0  0  0  0  0  0  0  0  0  0  0
   21.5420   17.2050    4.7340 C   0  0  0  0  0  0  0  0  0  0  0  0
   21.1980   15.7480    5.1160 C   0  0  0  0  0  0  0  0  0  0  0  0
   19.7450   15.5530    5.5470 C   0  0  0  0  0  0  0  0  0  0  0  0
   18.2200   14.8600    3.6210 C   0  0  0  0  0  0  0  0  0  0  0  0
   13.9350   14.4890    4.1450 C   0  0  0  0  0  0  0  0  0  0  0  0
   14.6390   15.5620    4.6860 C   0  0  0  0  0  0  0  0  0  0  0  0
   16.0210   15.6570    4.5290 C   0  0  0  0  0  0  0  0  0  0  0  0
   16.7340   14.6810    3.8110 C   0  0  0  0  0  0  0  0  0  0  0  0
   16.0280   13.5790    3.2760 C   0  0  0  0  0  0  0  0  0  0  0  0
   14.6300   13.5040    3.4470 C   0  0  0  0  0  0  0  0  0  0  0  0
   16.7150   12.4490    2.5530 C   0  0  0  0  0  0  0  0  0  0  0  0
   11.7720   13.6630    3.5830 C   0  0  0  0  0  0  0  0  0  0  0  0
   12.5890   14.5270    4.3660 O   0  0  0  0  0  0  0  0  0  0  0  0
   22.3460   17.9620    5.8080 C   0  0  0  0  0  0  0  0  0  0  0  0
   23.4970   18.6860    5.2140 N   0  0  0  0  0  4  0  0  0  0  0  0
   18.0135   16.3871    5.0166 H   0  0  0  0  0  0  0  0  0  0  0  0
   19.7760   16.7231    2.7059 H   0  0  0  0  0  0  0  0  0  0  0  0
   18.4199   17.7498    3.2917 H   0  0  0  0  0  0  0  0  0  0  0  0
   20.5409   18.8644    3.7630 H   0  0  0  0  0  0  0  0  0  0  0  0
   19.7809   18.3126    5.3115 H   0  0  0  0  0  0  0  0  0  0  0  0
   22.1958   17.1315    3.8524 H   0  0  0  0  0  0  0  0  0  0  0  0
   21.3909   15.1056    4.2442 H   0  0  0  0  0  0  0  0  0  0  0  0
   21.8275   15.4846    5.9788 H   0  0  0  0  0  0  0  0  0  0  0  0
   19.5735   14.4875    5.7598 H   0  0  0  0  0  0  0  0  0  0  0  0
   19.5627   16.1613    6.4452 H   0  0  0  0  0  0  0  0  0  0  0  0
   18.4152   15.0762    2.5603 H   0  0  0  0  0  0  0  0  0  0  0  0
   18.7098   13.9297    3.9446 H   0  0  0  0  0  0  0  0  0  0  0  0
   14.0993   16.3423    5.2427 H   0  0  0  0  0  0  0  0  0  0  0  0
   16.5606   16.5067    4.9727 H   0  0  0  0  0  0  0  0  0  0  0  0
   14.0787   12.6525    3.0216 H   0  0  0  0  0  0  0  0  0  0  0  0
   17.1406   11.7490    3.2871 H   0  0  0  0  0  0  0  0  0  0  0  0
   15.9855   11.9201    1.9221 H   0  0  0  0  0  0  0  0  0  0  0  0
   17.5204   12.8532    1.9221 H   0  0  0  0  0  0  0  0  0  0  0  0
   11.1697   13.0261    4.2475 H   0  0  0  0  0  0  0  0  0  0  0  0
   11.1049   14.2648    2.9483 H   0  0  0  0  0  0  0  0  0  0  0  0
   12.4101   13.0306    2.9483 H   0  0  0  0  0  0  0  0  0  0  0  0
   21.6849   18.6874    6.3047 H   0  0  0  0  0  0  0  0  0  0  0  0
   22.7342   17.2287    6.5302 H   0  0  0  0  0  0  0  0  0  0  0  0
   24.0924   19.0605    5.9665 H   0  0  0  0  0  0  0  0  0  0  0  0
   24.0466   18.0382    4.6316 H   0  0  0  0  0  0  0  0  0  0  0  0
   23.1510   19.4619    4.6316 H   0  0  0  0  0  0  0  0  0  0  0  0
  2  1  1  0
  3  2  1  0
  4  3  1  0
  5  4  1  0
  6  5  1  0
  6  1  1  0
  7  1  1  0
  9  8  2  0
 10  9  1  0
 11 10  2  0
 11  7  1  0
 12 11  1  0
 13 12  2  0
 13  8  1  0
 14 12  1  0
 16 15  1  0
 16  8  1  0
 17  4  1  0
 18 17  1  0
  1 19  1  0
  2 20  1  0
  2 21  1  0
  3 22  1  0
  3 23  1  0
  4 24  1  0
  5 25  1  0
  5 26  1  0
  6 27  1  0
  6 28  1  0
  7 29  1  0
  7 30  1  0
  9 31  1  0
 10 32  1  0
 13 33  1  0
 14 34  1  0
 14 35  1  0
 14 36  1  0
 15 37  1  0
 15 38  1  0
 15 39  1  0
 17 40  1  0
 17 41  1  0
 18 42  1  0
 18 43  1  0
 18 44  1  0
M  CHG  2   1   1  18   1
M  END
$$$$
=
     RDKit          3D

 46 47  0  0  0  0  0  0  0  0999 V2000
   15.6030   16.0860    5.1400 N   0  0  0  0  0  4  0  0  0  0  0  0
   14.6490   14.9700    4.9240 C   0  0  0  0  0  0  0  0  0  0  0  0
   14.4870   12.8820    3.5020 N   0  0  0  0  0  0  0  0  0  0  0  0
   15.2400   12.0950    2.7170 N   0  0  0  0  0  0  0  0  0  0  0  0
   16.3710   12.7730    2.5390 C   0  0  0  0  0  0  0  0  0  0  0  0
   16.3880   13.9600    3.2860 C   0  0  0  0  0  0  0  0  0  0  0  0
   15.1750   13.9880    3.9540 C   0  0  0  0  0  0  0  0  0  0  0  0
   13.1450   12.4260    3.8320 C   0  0  0  0  0  0  0  0  0  0  0  0
   11.1590   12.0770    2.2600 C   0  0  0  0  0  0  0  0  0  0  0  0
   12.0030   13.0870    3.0370 C   0  0  0  0  0  0  0  0  0  0  0  0
   11.1080   13.9660    3.9120 C   0  0  0  0  0  0  0  0  0  0  0  0
   16.5940   15.8990    6.2510 C   0  0  0  0  0  0  0  0  0  0  0  0
   17.9830   16.1430    5.7590 C   0  0  0  0  0  0  0  0  0  0  0  0
   19.1750   15.4770    6.1040 C   0  0  0  0  0  0  0  0  0  0  0  0
   20.1500   16.0980    5.3610 C   0  0  0  0  0  0  0  0  0  0  0  0
   19.5260   17.0650    4.6240 N   0  0  0  0  0  0  0  0  0  0  0  0
   18.1930   17.1280    4.8670 N   0  0  0  0  0  0  0  0  0  0  0  0
   20.1390   17.9830    3.6660 C   0  0  0  0  0  0  0  0  0  0  0  0
   19.8380   17.5750    2.2240 C   0  0  0  0  0  0  0  0  0  0  0  0
   21.6420   18.1190    3.9080 C   0  0  0  0  0  0  0  0  0  0  0  0
   16.1312   16.2225    4.2663 H   0  0  0  0  0  0  0  0  0  0  0  0
   15.0269   16.8942    5.4152 H   0  0  0  0  0  0  0  0  0  0  0  0
   14.4686   14.4632    5.8835 H   0  0  0  0  0  0  0  0  0  0  0  0
   13.7150   15.3878    4.5200 H   0  0  0  0  0  0  0  0  0  0  0  0
   17.1923   12.4429    1.8859 H   0  0  0  0  0  0  0  0  0  0  0  0
   17.1927   14.7086    3.3316 H   0  0  0  0  0  0  0  0  0  0  0  0
   13.1014   11.3422    3.6493 H   0  0  0  0  0  0  0  0  0  0  0  0
   12.9818   12.7068    4.8830 H   0  0  0  0  0  0  0  0  0  0  0  0
   10.6185   11.4302    2.9667 H   0  0  0  0  0  0  0  0  0  0  0  0
   10.4364   12.6129    1.6271 H   0  0  0  0  0  0  0  0  0  0  0  0
   11.8148   11.4611    1.6271 H   0  0  0  0  0  0  0  0  0  0  0  0
   12.5032   13.7377    2.3047 H   0  0  0  0  0  0  0  0  0  0  0  0
   11.3167   13.7610    4.9724 H   0  0  0  0  0  0  0  0  0  0  0  0
   11.3111   15.0254    3.6965 H   0  0  0  0  0  0  0  0  0  0  0  0
   10.0525   13.7438    3.6965 H   0  0  0  0  0  0  0  0  0  0  0  0
   16.3673   16.6074    7.0614 H   0  0  0  0  0  0  0  0  0  0  0  0
   16.5237   14.8653    6.6204 H   0  0  0  0  0  0  0  0  0  0  0  0
   19.2983   14.6440    6.8117 H   0  0  0  0  0  0  0  0  0  0  0  0
   21.2245   15.8624    5.3597 H   0  0  0  0  0  0  0  0  0  0  0  0
   19.6879   18.9735    3.8253 H   0  0  0  0  0  0  0  0  0  0  0  0
   19.1850   16.6898    2.2221 H   0  0  0  0  0  0  0  0  0  0  0  0
   19.3335   18.4040    1.7061 H   0  0  0  0  0  0  0  0  0  0  0  0
   20.7790   17.3376    1.7061 H   0  0  0  0  0  0  0  0  0  0  0  0
   21.8390   18.1368    4.9901 H   0  0  0  0  0  0  0  0  0  0  0  0
   22.1653   17.2645    3.4541 H   0  0  0  0  0  0  0  0  0  0  0  0
   22.0034   19.0535    3.4541 H   0  0  0  0  0  0  0  0  0  0  0  0
  2  1  1  0
  4  3  1  0
  5  4  2  0
  6  5  1  0
  7  3  1  0
  7  2  1  0
  7  6  2  0
  8  3  1  0
 10  9  1  0
 10  8  1  0
 11 10  1  0
 12  1  1  0
 13 12  1  0
 14 13  1  0
 15 14  2  0
 16 15  1  0
 17 13  2  0
 17 16  1  0
 18 16  1  0
 19 18  1  0
 20 18  1  0
  1 21  1  0
  1 22  1  0
  2 23  1  0
  2 24  1  0
  5 25  1  0
  6 26  1  0
  8 27  1  0
  8 28  1  0
  9 29  1  0
  9 30  1  0
  9 31  1  0
 10 32  1  0
 11 33  1  0
 11 34  1  0
 11 35  1  0
 12 36  1  0
 12 37  1  0
 14 38  1  0
 15 39  1  0
 18 40  1  0
 19 41  1  0
 19 42  1  0
 19 43  1  0
 20 44  1  0
 20 45  1  0
 20 46  1  0
M  CHG  1   1   1
M  END
$$$$
=
     RDKit          3D

 31 32  0  0  0  0  0  0  0  0999 V2000
   19.5590   16.3580    4.3700 C   0  0  0  0  0  0  0  0  0  0  0  0
   20.7010   15.4770    4.9660 C   0  0  0  0  0  0  0  0  0  0  0  0
   21.3890   16.1470    6.1540 C   0  0  0  0  0  0  0  0  0  0  0  0
   22.0870   17.4420    5.7370 C   0  0  0  0  0  0  0  0  0  0  0  0
   21.3730   18.1660    4.5950 C   0  0  0  0  0  0  0  0  0  0  0  0
   19.8750   17.8660    4.6030 C   0  0  0  0  0  0  0  0  0  0  0  0
   18.1510   15.9440    4.8200 C   0  0  0  0  0  0  0  0  0  0  0  0
   17.7090   16.1050    6.1480 C   0  0  0  0  0  0  0  0  0  0  0  0
   16.4050   15.7720    6.5290 C   0  0  0  0  0  0  0  0  0  0  0  0
   15.5040   15.2840    5.5900 C   0  0  0  0  0  0  0  0  0  0  0  0
   15.9030   15.1360    4.2680 C   0  0  0  0  0  0  0  0  0  0  0  0
   17.2060   15.4690    3.8850 C   0  0  0  0  0  0  0  0  0  0  0  0
   19.6010   16.1470    2.8740 N   0  0  0  0  0  4  0  0  0  0  0  0
   20.2727   14.5200    5.2987 H   0  0  0  0  0  0  0  0  0  0  0  0
   21.4559   15.3272    4.1801 H   0  0  0  0  0  0  0  0  0  0  0  0
   20.6348   16.3778    6.9207 H   0  0  0  0  0  0  0  0  0  0  0  0
   22.1484   15.4561    6.5489 H   0  0  0  0  0  0  0  0  0  0  0  0
   22.1273   18.1140    6.6069 H   0  0  0  0  0  0  0  0  0  0  0  0
   23.0915   17.1730    5.3783 H   0  0  0  0  0  0  0  0  0  0  0  0
   21.5227   19.2499    4.7079 H   0  0  0  0  0  0  0  0  0  0  0  0
   21.7941   17.8141    3.6417 H   0  0  0  0  0  0  0  0  0  0  0  0
   19.4621   18.1649    5.5778 H   0  0  0  0  0  0  0  0  0  0  0  0
   19.4201   18.4309    3.7760 H   0  0  0  0  0  0  0  0  0  0  0  0
   18.4049   16.5014    6.9020 H   0  0  0  0  0  0  0  0  0  0  0  0
   16.0914   15.8968    7.5759 H   0  0  0  0  0  0  0  0  0  0  0  0
   14.4807   15.0165    5.8922 H   0  0  0  0  0  0  0  0  0  0  0  0
   15.1919   14.7557    3.5199 H   0  0  0  0  0  0  0  0  0  0  0  0
   17.5014   15.3583    2.8312 H   0  0  0  0  0  0  0  0  0  0  0  0
   19.7982   15.1564    2.6724 H   0  0  0  0  0  0  0  0  0  0  0  0
   18.6919   16.4062    2.4650 H   0  0  0  0  0  0  0  0  0  0  0  0
   20.3415   16.7346    2.4650 H   0  0  0  0  0  0  0  0  0  0  0  0
  2  1  1  0
  3  2  1  0
  4  3  1  0
  5  4  1  0
  6  5  1  0
  6  1  1  0
  7  1  1  0
  8  7  2  0
  9  8  1  0
 10  9  2  0
 11 10  1  0
 12 11  2  0
 12  7  1  0
 13  1  1  0
  2 14  1  0
  2 15  1  0
  3 16  1  0
  3 17  1  0
  4 18  1  0
  4 19  1  0
  5 20  1  0
  5 21  1  0
  6 22  1  0
  6 23  1  0
  8 24  1  0
  9 25  1  0
 10 26  1  0
 11 27  1  0
 12 28  1  0
 13 29  1  0
 13 30  1  0
 13 31  1  0
M  CHG  1  13   1
M  END
$$$$
=
     RDKit          3D

 29 30  0  0  0  0  0  0  0  0999 V2000
   20.8860   18.4180    5.3270 C   0  0  0  0  0  0  0  0  0  0  0  0
   19.4310   18.4520    5.7100 C   0  0  0  0  0  0  0  0  0  0  0  0
   18.8680   19.4970    6.0230 O   0  0  0  0  0  0  0  0  0  0  0  0
   18.7470   17.2560    5.6560 N   0  0  0  0  0  0  0  0  0  0  0  0
   19.2770   15.9490    5.3040 C   0  0  0  0  0  0  0  0  0  0  0  0
   18.0040   15.1420    5.0200 C   0  0  1  0  0  0  0  0  0  0  0  0
   17.0390   15.6700    6.0910 C   0  0  1  0  0  0  0  0  0  0  0  0
   17.3830   17.1650    6.1700 C   0  0  0  0  0  0  0  0  0  0  0  0
   15.5690   15.3700    5.8090 C   0  0  0  0  0  0  0  0  0  0  0  0
   15.1520   15.6760    4.3710 C   0  0  0  0  0  0  0  0  0  0  0  0
   16.0990   15.0430    3.3670 C   0  0  0  0  0  0  0  0  0  0  0  0
   17.4870   15.5100    3.6470 N   0  0  0  0  0  4  0  0  0  0  0  0
   21.5044   18.4036    6.2366 H   0  0  0  0  0  0  0  0  0  0  0  0
   21.0876   17.5149    4.7322 H   0  0  0  0  0  0  0  0  0  0  0  0
   21.1296   19.3107    4.7322 H   0  0  0  0  0  0  0  0  0  0  0  0
   19.9185   16.0069    4.4123 H   0  0  0  0  0  0  0  0  0  0  0  0
   19.9117   15.5072    6.0863 H   0  0  0  0  0  0  0  0  0  0  0  0
   18.1416   14.0509    5.0445 H   0  0  0  0  0  0  0  0  0  0  0  0
   17.1678   15.1653    7.0599 H   0  0  0  0  0  0  0  0  0  0  0  0
   16.6936   17.7556    5.5488 H   0  0  0  0  0  0  0  0  0  0  0  0
   17.2950   17.5602    7.1928 H   0  0  0  0  0  0  0  0  0  0  0  0
   15.3870   14.3031    6.0052 H   0  0  0  0  0  0  0  0  0  0  0  0
   14.9730   16.0211    6.4654 H   0  0  0  0  0  0  0  0  0  0  0  0
   14.1384   15.2834    4.2022 H   0  0  0  0  0  0  0  0  0  0  0  0
   15.1799   16.7665    4.2296 H   0  0  0  0  0  0  0  0  0  0  0  0
   16.0533   13.9476    3.4569 H   0  0  0  0  0  0  0  0  0  0  0  0
   15.8078   15.3342    2.3470 H   0  0  0  0  0  0  0  0  0  0  0  0
   18.1148   15.0944    2.9441 H   0  0  0  0  0  0  0  0  0  0  0  0
   17.4651   16.5390    3.6068 H   0  0  0  0  0  0  0  0  0  0  0  0
  2  1  1  0
  3  2  2  0
  4  2  1  0
  5  4  1  0
  6  5  1  0
  7  6  1  0
  8  7  1  0
  8  4  1  0
  9  7  1  0
 10  9  1  0
 11 10  1  0
 12 11  1  0
 12  6  1  0
  1 13  1  0
  1 14  1  0
  1 15  1  0
  5 16  1  0
  5 17  1  0
  6 18  1  6
  7 19  1  1
  8 20  1  0
  8 21  1  0
  9 22  1  0
  9 23  1  0
 10 24  1  0
 10 25  1  0
 11 26  1  0
 11 27  1  0
 12 28  1  0
 12 29  1  0
M  CHG  1  12   1
M  END
$$$$
=
     RDKit          3D

 52 53  0  0  0  0  0  0  0  0999 V2000
   30.2910   26.1420   15.1220 C   0  0  0  0  0  0  0  0  0  0  0  0
   29.3810   24.9160   15.2550 C   0  0  0  0  0  0  0  0  0  0  0  0
   29.6910   23.8060   14.2460 C   0  0  0  0  0  0  0  0  0  0  0  0
   28.5200   23.4440   13.3870 N   0  0  0  0  0  4  0  0  0  0  0  0
   25.7440   23.5090   13.1240 O   0  0  0  0  0  0  0  0  0  0  0  0
   25.9350   23.8310   11.7210 S   0  0  0  0  0  6  0  0  0  0  0  0
   24.9210   24.3860   10.8650 O   0  0  0  0  0  0  0  0  0  0  0  0
   26.7070   22.4080   10.9740 C   0  0  0  0  0  0  0  0  0  0  0  0
   28.2080   22.7060   10.9660 C   0  0  0  0  0  0  0  0  0  0  0  0
   28.4990   23.8690   11.9280 C   0  0  1  0  0  0  0  0  0  0  0  0
   27.3700   24.8710   11.6960 C   0  0  0  0  0  0  0  0  0  0  0  0
   30.3020   27.0650   16.3540 C   0  0  0  0  0  0  0  0  0  0  0  0
   30.7250   28.5060   16.0340 C   0  0  0  0  0  0  0  0  0  0  0  0
   29.5410   29.4690   15.9970 C   0  0  0  0  0  0  0  0  0  0  0  0
   28.6210   29.2120   14.8280 N   0  0  0  0  0  4  0  0  0  0  0  0
   27.1950   28.7340   15.0110 C   0  0  1  0  0  0  0  0  0  0  0  0
   26.8750   27.4770   14.1950 C   0  0  0  0  0  0  0  0  0  0  0  0
   25.5930   26.9130   14.7940 C   0  0  0  0  0  0  0  0  0  0  0  0
   25.8590   27.0590   16.5500 S   0  0  0  0  0  6  0  0  0  0  0  0
   24.6130   27.3490   17.2150 O   0  0  0  0  0  0  0  0  0  0  0  0
   26.7560   26.0020   16.9710 O   0  0  0  0  0  0  0  0  0  0  0  0
   26.8290   28.5470   16.4830 C   0  0  0  0  0  0  0  0  0  0  0  0
   31.3184   25.7900   14.9471 H   0  0  0  0  0  0  0  0  0  0  0  0
   29.8930   26.7383   14.2877 H   0  0  0  0  0  0  0  0  0  0  0  0
   29.4972   24.5058   16.2690 H   0  0  0  0  0  0  0  0  0  0  0  0
   28.3540   25.2550   15.0542 H   0  0  0  0  0  0  0  0  0  0  0  0
   30.5104   24.1447   13.5949 H   0  0  0  0  0  0  0  0  0  0  0  0
   29.9632   22.9089   14.8214 H   0  0  0  0  0  0  0  0  0  0  0  0
   28.4455   22.4168   13.4004 H   0  0  0  0  0  0  0  0  0  0  0  0
   27.7423   23.9755   13.8037 H   0  0  0  0  0  0  0  0  0  0  0  0
   26.4988   21.5043   11.5655 H   0  0  0  0  0  0  0  0  0  0  0  0
   26.3245   22.2253    9.9590 H   0  0  0  0  0  0  0  0  0  0  0  0
   28.7619   21.8128   11.2908 H   0  0  0  0  0  0  0  0  0  0  0  0
   28.5242   22.9806    9.9488 H   0  0  0  0  0  0  0  0  0  0  0  0
   29.4980   24.2842   11.7290 H   0  0  0  0  0  0  0  0  0  0  0  0
   27.4790   25.3769   10.7253 H   0  0  0  0  0  0  0  0  0  0  0  0
   27.3403   25.6822   12.4383 H   0  0  0  0  0  0  0  0  0  0  0  0
   29.2892   27.0862   16.7826 H   0  0  0  0  0  0  0  0  0  0  0  0
   31.0434   26.6581   17.0574 H   0  0  0  0  0  0  0  0  0  0  0  0
   31.4318   28.8456   16.8054 H   0  0  0  0  0  0  0  0  0  0  0  0
   31.1858   28.5048   15.0352 H   0  0  0  0  0  0  0  0  0  0  0  0
   28.9668   29.3575   16.9286 H   0  0  0  0  0  0  0  0  0  0  0  0
   29.9426   30.4872   15.8878 H   0  0  0  0  0  0  0  0  0  0  0  0
   28.5619   30.0995   14.3086 H   0  0  0  0  0  0  0  0  0  0  0  0
   29.0643   28.3959   14.3827 H   0  0  0  0  0  0  0  0  0  0  0  0
   26.5614   29.5401   14.6127 H   0  0  0  0  0  0  0  0  0  0  0  0
   26.7228   27.7351   13.1366 H   0  0  0  0  0  0  0  0  0  0  0  0
   27.6971   26.7471   14.2339 H   0  0  0  0  0  0  0  0  0  0  0  0
   24.7188   27.5012   14.4780 H   0  0  0  0  0  0  0  0  0  0  0  0
   25.3878   25.8805   14.4750 H   0  0  0  0  0  0  0  0  0  0  0  0
   26.2422   29.4043   16.8445 H   0  0  0  0  0  0  0  0  0  0  0  0
   27.7238   28.4781   17.1190 H   0  0  0  0  0  0  0  0  0  0  0  0
  2  1  1  0
  3  2  1  0
  4  3  1  0
  6  5  2  0
  7  6  2  0
  8  6  1  0
  9  8  1  0
 10  9  1  0
 10  4  1  0
 11  6  1  0
 11 10  1  0
 12  1  1  0
 13 12  1  0
 14 13  1  0
 15 14  1  0
 16 15  1  0
 17 16  1  0
 18 17  1  0
 19 18  1  0
 20 19  2  0
 21 19  2  0
 22 19  1  0
 22 16  1  0
  1 23  1  0
  1 24  1  0
  2 25  1  0
  2 26  1  0
  3 27  1  0
  3 28  1  0
  4 29  1  0
  4 30  1  0
  8 31  1  0
  8 32  1  0
  9 33  1  0
  9 34  1  0
 10 35  1  6
 11 36  1  0
 11 37  1  0
 12 38  1  0
 12 39  1  0
 13 40  1  0
 13 41  1  0
 14 42  1  0
 14 43  1  0
 15 44  1  0
 15 45  1  0
 16 46  1  6
 17 47  1  0
 17 48  1  0
 18 49  1  0
 18 50  1  0
 22 51  1  0
 22 52  1  0
M  CHG  2   4   1  15   1
M  END
$$$$
=
     RDKit          3D

 23 24  0  0  0  0  0  0  0  0999 V2000
   19.3130   14.6090    3.6070 N   0  0  0  0  0  0  0  0  0  0  0  0
   18.1260   15.1420    4.1000 C   0  0  0  0  0  0  0  0  0  0  0  0
   18.2450   16.2740    4.8260 N   0  0  0  0  0  0  0  0  0  0  0  0
   17.1110   16.8440    5.3280 C   0  0  0  0  0  0  0  0  0  0  0  0
   15.8310   16.3470    5.1500 C   0  0  0  0  0  0  0  0  0  0  0  0
   15.7530   15.1900    4.4140 C   0  0  0  0  0  0  0  0  0  0  0  0
   16.8860   14.5730    3.8880 C   0  0  0  0  0  0  0  0  0  0  0  0
   16.4660   13.4100    3.2170 N   0  0  0  0  0  0  0  0  0  0  0  0
   17.3250   12.4380    2.6080 C   0  0  0  0  0  0  0  0  0  0  0  0
   15.0640   13.2980    3.3270 C   0  0  0  0  0  0  0  0  0  0  0  0
   14.3620   12.4040    2.8810 O   0  0  0  0  0  0  0  0  0  0  0  0
   14.6360   14.4220    4.0630 N   0  0  0  0  0  0  0  0  0  0  0  0
   13.2810   14.7040    4.4390 C   0  0  0  0  0  0  0  0  0  0  0  0
   19.2957   13.7462    3.0447 H   0  0  0  0  0  0  0  0  0  0  0  0
   20.2089   15.0773    3.8043 H   0  0  0  0  0  0  0  0  0  0  0  0
   17.2222   17.7661    5.9174 H   0  0  0  0  0  0  0  0  0  0  0  0
   14.9419   16.8424    5.5674 H   0  0  0  0  0  0  0  0  0  0  0  0
   17.8367   11.8590    3.3910 H   0  0  0  0  0  0  0  0  0  0  0  0
   16.7259   11.7597    1.9828 H   0  0  0  0  0  0  0  0  0  0  0  0
   18.0719   12.9492    1.9828 H   0  0  0  0  0  0  0  0  0  0  0  0
   13.2008   14.7207    5.5359 H   0  0  0  0  0  0  0  0  0  0  0  0
   12.9845   15.6831    4.0347 H   0  0  0  0  0  0  0  0  0  0  0  0
   12.6185   13.9245    4.0347 H   0  0  0  0  0  0  0  0  0  0  0  0
  2  1  1  0
  3  2  2  0
  4  3  1  0
  5  4  2  0
  6  5  1  0
  7  6  2  0
  7  2  1  0
  8  7  1  0
  9  8  1  0
 10  8  1  0
 11 10  2  0
 12 10  1  0
 12  6  1  0
 13 12  1  0
  1 14  1  0
  1 15  1  0
  4 16  1  0
  5 17  1  0
  9 18  1  0
  9 19  1  0
  9 20  1  0
 13 21  1  0
 13 22  1  0
 13 23  1  0
M  END
$$$$
=
     RDKit          3D

 36 35  0  0  0  0  0  0  0  0999 V2000
   20.0760   16.7850    3.2200 C   0  0  1  0  0  0  0  0  0  0  0  0
   17.8830   16.2080    4.2440 N   0  0  0  0  0  0  0  0  0  0  0  0
   19.0270   15.7390    3.6510 C   0  0  0  0  0  0  0  0  0  0  0  0
   19.2740   14.5470    3.4580 O   0  0  0  0  0  0  0  0  0  0  0  0
   16.8510   15.2980    4.7530 C   0  0  1  0  0  0  0  0  0  0  0  0
   16.3290   15.8080    6.0960 C   0  0  0  0  0  0  0  0  0  0  0  0
   14.3700   15.5920    4.2020 C   0  0  0  0  0  0  0  0  0  0  0  0
   15.7390   15.1550    3.7020 C   0  0  0  0  0  0  0  0  0  0  0  0
   19.4440   17.6880    2.1930 N   0  0  0  0  0  4  0  0  0  0  0  0
   20.6530   17.6060    4.3960 C   0  0  1  0  0  0  0  0  0  0  0  0
   21.0500   16.6830    5.5560 C   0  0  0  0  0  0  0  0  0  0  0  0
   21.8280   18.5150    3.9720 C   0  0  0  0  0  0  0  0  0  0  0  0
   22.9960   18.4870    4.9490 C   0  0  0  0  0  0  0  0  0  0  0  0
   20.9371   16.2484    2.7951 H   0  0  0  0  0  0  0  0  0  0  0  0
   17.7448   17.2247    4.3343 H   0  0  0  0  0  0  0  0  0  0  0  0
   17.2715   14.2971    4.9300 H   0  0  0  0  0  0  0  0  0  0  0  0
   16.8556   15.2935    6.9133 H   0  0  0  0  0  0  0  0  0  0  0  0
   16.5055   16.8912    6.1706 H   0  0  0  0  0  0  0  0  0  0  0  0
   15.2502   15.6063    6.1706 H   0  0  0  0  0  0  0  0  0  0  0  0
   14.3648   15.5937    5.3020 H   0  0  0  0  0  0  0  0  0  0  0  0
   14.1509   16.6047    3.8327 H   0  0  0  0  0  0  0  0  0  0  0  0
   13.6046   14.8935    3.8327 H   0  0  0  0  0  0  0  0  0  0  0  0
   15.6786   14.0988    3.4008 H   0  0  0  0  0  0  0  0  0  0  0  0
   16.0018   15.8146    2.8618 H   0  0  0  0  0  0  0  0  0  0  0  0
   18.9204   18.4362    2.6694 H   0  0  0  0  0  0  0  0  0  0  0  0
   20.1788   18.1048    1.6037 H   0  0  0  0  0  0  0  0  0  0  0  0
   18.8008   17.1404    1.6037 H   0  0  0  0  0  0  0  0  0  0  0  0
   19.8542   18.2788    4.7413 H   0  0  0  0  0  0  0  0  0  0  0  0
   20.8351   17.1826    6.5122 H   0  0  0  0  0  0  0  0  0  0  0  0
   20.4747   15.7475    5.4937 H   0  0  0  0  0  0  0  0  0  0  0  0
   22.1248   16.4573    5.4937 H   0  0  0  0  0  0  0  0  0  0  0  0
   22.1887   18.1825    2.9874 H   0  0  0  0  0  0  0  0  0  0  0  0
   21.4485   19.5472    3.9483 H   0  0  0  0  0  0  0  0  0  0  0  0
   22.6121   18.4962    5.9798 H   0  0  0  0  0  0  0  0  0  0  0  0
   23.5882   17.5744    4.7864 H   0  0  0  0  0  0  0  0  0  0  0  0
   23.6313   19.3702    4.7864 H   0  0  0  0  0  0  0  0  0  0  0  0
  3  2  1  0
  3  1  1  0
  4  3  2  0
  5  2  1  0
  6  5  1  0
  8  7  1  0
  8  5  1  0
  9  1  1  0
 10  1  1  0
 11 10  1  0
 12 10  1  0
 13 12  1  0
  1 14  1  6
  2 15  1  0
  5 16  1  1
  6 17  1  0
  6 18  1  0
  6 19  1  0
  7 20  1  0
  7 21  1  0
  7 22  1  0
  8 23  1  0
  8 24  1  0
  9 25  1  0
  9 26  1  0
  9 27  1  0
 10 28  1  1
 11 29  1  0
 11 30  1  0
 11 31  1  0
 12 32  1  0
 12 33  1  0
 13 34  1  0
 13 35  1  0
 13 36  1  0
M  CHG  1   9   1
M  END
$$$$
=
     RDKit          3D

 50 52  0  0  0  0  0  0  0  0999 V2000
   17.5170   12.4560    2.4250 C   0  0  0  0  0  0  0  0  0  0  0  0
   18.7160   13.2010    2.9090 N   0  0  0  0  0  4  0  0  0  0  0  0
   18.7320   13.5640    4.3550 C   0  0  0  0  0  0  0  0  0  0  0  0
   20.6290   17.3700    5.1230 C   0  0  0  0  0  0  0  0  0  0  0  0
   20.6020   16.3890    6.1110 C   0  0  0  0  0  0  0  0  0  0  0  0
   20.0000   15.1500    5.8590 C   0  0  0  0  0  0  0  0  0  0  0  0
   19.4140   14.8780    4.6140 C   0  0  0  0  0  0  0  0  0  0  0  0
   19.4490   15.8680    3.6230 C   0  0  0  0  0  0  0  0  0  0  0  0
   20.0470   17.1030    3.8830 C   0  0  0  0  0  0  0  0  0  0  0  0
   21.1650   18.6210    5.2360 O   0  0  0  0  0  0  0  0  0  0  0  0
   23.5800   18.5340    5.0740 C   0  0  0  0  0  0  0  0  0  0  0  0
   22.2810   18.9730    4.4200 C   0  0  0  0  0  0  0  0  0  0  0  0
   16.2980   12.8220    3.2700 C   0  0  0  0  0  0  0  0  0  0  0  0
   14.9750   12.5590    2.5340 C   0  0  0  0  0  0  0  0  0  0  0  0
   13.6870   11.8910    3.6350 S   0  0  0  0  0  0  0  0  0  0  0  0
   12.6460   13.2640    3.8210 C   0  0  0  0  0  0  0  0  0  0  0  0
   11.3660   13.2270    3.5070 N   0  0  0  0  0  0  0  0  0  0  0  0
   10.8370   14.4100    3.9130 N   0  0  0  0  0  0  0  0  0  0  0  0
   11.7570   15.1700    4.4770 N   0  0  0  0  0  0  0  0  0  0  0  0
   12.9460   14.4990    4.3960 N   0  0  0  0  0  0  0  0  0  0  0  0
   14.1430   15.1120    4.8650 C   0  0  0  0  0  0  0  0  0  0  0  0
   14.7000   14.6550    6.0750 C   0  0  0  0  0  0  0  0  0  0  0  0
   15.8740   15.2200    6.5800 C   0  0  0  0  0  0  0  0  0  0  0  0
   16.5020   16.2510    5.8910 C   0  0  0  0  0  0  0  0  0  0  0  0
   15.9540   16.7220    4.7020 C   0  0  0  0  0  0  0  0  0  0  0  0
   14.7770   16.1610    4.1890 C   0  0  0  0  0  0  0  0  0  0  0  0
   17.3243   12.7191    1.3745 H   0  0  0  0  0  0  0  0  0  0  0  0
   17.7045   11.3755    2.5107 H   0  0  0  0  0  0  0  0  0  0  0  0
   19.5438   12.6169    2.7234 H   0  0  0  0  0  0  0  0  0  0  0  0
   18.7040   14.0975    2.4020 H   0  0  0  0  0  0  0  0  0  0  0  0
   17.6940   13.6293    4.7133 H   0  0  0  0  0  0  0  0  0  0  0  0
   19.2971   12.7849    4.8876 H   0  0  0  0  0  0  0  0  0  0  0  0
   21.0553   16.5881    7.0933 H   0  0  0  0  0  0  0  0  0  0  0  0
   19.9865   14.3816    6.6461 H   0  0  0  0  0  0  0  0  0  0  0  0
   19.0038   15.6717    2.6365 H   0  0  0  0  0  0  0  0  0  0  0  0
   20.0594   17.8755    3.1000 H   0  0  0  0  0  0  0  0  0  0  0  0
   23.4706   18.5710    6.1679 H   0  0  0  0  0  0  0  0  0  0  0  0
   23.8175   17.5057    4.7638 H   0  0  0  0  0  0  0  0  0  0  0  0
   24.3926   19.2074    4.7638 H   0  0  0  0  0  0  0  0  0  0  0  0
   22.1837   18.4795    3.4418 H   0  0  0  0  0  0  0  0  0  0  0  0
   22.2983   20.0657    4.2944 H   0  0  0  0  0  0  0  0  0  0  0  0
   16.3145   12.2226    4.1922 H   0  0  0  0  0  0  0  0  0  0  0  0
   16.3522   13.8988    3.4883 H   0  0  0  0  0  0  0  0  0  0  0  0
   14.6158   13.5058    2.1043 H   0  0  0  0  0  0  0  0  0  0  0  0
   15.1697   11.8093    1.7530 H   0  0  0  0  0  0  0  0  0  0  0  0
   14.2051   13.8438    6.6291 H   0  0  0  0  0  0  0  0  0  0  0  0
   16.3014   14.8487    7.5231 H   0  0  0  0  0  0  0  0  0  0  0  0
   17.4292   16.6931    6.2845 H   0  0  0  0  0  0  0  0  0  0  0  0
   16.4489   17.5415    4.1603 H   0  0  0  0  0  0  0  0  0  0  0  0
   14.3496   16.5464    3.2515 H   0  0  0  0  0  0  0  0  0  0  0  0
  2  1  1  0
  3  2  1  0
  5  4  2  0
  6  5  1  0
  7  3  1  0
  7  6  2  0
  8  7  1  0
  9  8  2  0
  9  4  1  0
 10  4  1  0
 12 10  1  0
 12 11  1  0
 13  1  1  0
 14 13  1  0
 15 14  1  0
 16 15  1  0
 17 16  2  0
 18 17  1  0
 19 18  2  0
 20 19  1  0
 20 16  1  0
 21 20  1  0
 22 21  2  0
 23 22  1  0
 24 23  2  0
 25 24  1  0
 26 21  1  0
 26 25  2  0
  1 27  1  0
  1 28  1  0
  2 29  1  0
  2 30  1  0
  3 31  1  0
  3 32  1  0
  5 33  1  0
  6 34  1  0
  8 35  1  0
  9 36  1  0
 11 37  1  0
 11 38  1  0
 11 39  1  0
 12 40  1  0
 12 41  1  0
 13 42  1  0
 13 43  1  0
 14 44  1  0
 14 45  1  0
 22 46  1  0
 23 47  1  0
 24 48  1  0
 25 49  1  0
 26 50  1  0
M  CHG  1   2   1
M  END
$$$$
=
     RDKit          3D

 20 20  0  0  0  0  0  0  0  0999 V2000
   18.7490   14.9670    3.8610 C   0  0  0  0  0  0  0  0  0  0  0  0
   17.5950   15.4040    4.4900 C   0  0  0  0  0  0  0  0  0  0  0  0
   17.5890   16.6710    5.0650 C   0  0  0  0  0  0  0  0  0  0  0  0
   18.7340   17.4580    4.9930 C   0  0  0  0  0  0  0  0  0  0  0  0
   19.8500   16.9480    4.3460 C   0  0  0  0  0  0  0  0  0  0  0  0
   19.8620   15.7190    3.7850 N   0  0  0  0  0  0  0  0  0  0  0  0
   18.8170   13.7080    3.2670 N   0  0  0  0  0  0  0  0  0  0  0  0
   21.3240   17.9400    4.2430 S   0  0  0  0  0  0  0  0  0  0  0  0
   22.2700   17.4270    5.5990 C   0  0  0  0  0  0  0  0  0  0  0  0
   22.1410   16.2780    6.2110 N   0  0  0  0  0  4  0  0  0  0  0  0
   23.1760   18.2790    6.0200 N   0  0  0  0  0  0  0  0  0  0  0  0
   16.7022   14.7630    4.5340 H   0  0  0  0  0  0  0  0  0  0  0  0
   16.6878   17.0467    5.5716 H   0  0  0  0  0  0  0  0  0  0  0  0
   18.7539   18.4631    5.4396 H   0  0  0  0  0  0  0  0  0  0  0  0
   19.6853   13.4030    2.8045 H   0  0  0  0  0  0  0  0  0  0  0  0
   17.9990   13.0826    3.2906 H   0  0  0  0  0  0  0  0  0  0  0  0
   22.7464   16.0507    7.0127 H   0  0  0  0  0  0  0  0  0  0  0  0
   21.4341   15.6006    5.8911 H   0  0  0  0  0  0  0  0  0  0  0  0
   23.7748   18.0391    6.8230 H   0  0  0  0  0  0  0  0  0  0  0  0
   23.2879   19.1873    5.5473 H   0  0  0  0  0  0  0  0  0  0  0  0
  2  1  2  0
  3  2  1  0
  4  3  2  0
  5  4  1  0
  6  1  1  0
  6  5  2  0
  7  1  1  0
  8  5  1  0
  9  8  1  0
 10  9  2  3
 11  9  1  0
  2 12  1  0
  3 13  1  0
  4 14  1  0
  7 15  1  0
  7 16  1  0
 10 17  1  0
 10 18  1  0
 11 19  1  0
 11 20  1  0
M  CHG  1  10   1
M  END
$$$$
=
     RDKit          3D

 31 34  0  0  0  0  0  0  0  0999 V2000
   22.0110   18.0480    5.3900 C   0  0  0  0  0  0  0  0  0  0  0  0
   20.9080   18.8060    5.8040 C   0  0  0  0  0  0  0  0  0  0  0  0
   19.5920   18.3690    5.6050 C   0  0  0  0  0  0  0  0  0  0  0  0
   19.4260   17.1150    5.0110 C   0  0  0  0  0  0  0  0  0  0  0  0
   20.4970   16.3100    4.6390 C   0  0  0  0  0  0  0  0  0  0  0  0
   21.8070   16.7700    4.8510 C   0  0  0  0  0  0  0  0  0  0  0  0
   20.0670   15.1200    4.0980 N   0  0  0  0  0  0  0  0  0  0  0  0
   18.7520   15.1930    4.1340 C   0  0  0  0  0  0  0  0  0  0  0  0
   18.3120   16.3820    4.6780 N   0  0  0  0  0  0  0  0  0  0  0  0
   17.0120   16.7650    4.8570 N   0  0  0  0  0  0  0  0  0  0  0  0
   16.1130   15.9040    4.4670 C   0  0  0  0  0  0  0  0  0  0  0  0
   16.4150   14.5660    3.8560 C   0  0  0  0  0  0  0  0  0  0  0  0
   17.7660   14.2270    3.6960 C   0  0  0  0  0  0  0  0  0  0  0  0
   18.1220   13.0000    3.1350 C   0  0  0  0  0  0  0  0  0  0  0  0
   17.1290   12.1080    2.7310 C   0  0  0  0  0  0  0  0  0  0  0  0
   15.7830   12.4420    2.8890 C   0  0  0  0  0  0  0  0  0  0  0  0
   15.4210   13.6700    3.4500 C   0  0  0  0  0  0  0  0  0  0  0  0
   14.6640   16.2970    4.6520 C   0  0  0  0  0  0  0  0  0  0  0  0
   23.3090   18.4730    5.7120 N   0  0  0  0  0  0  0  0  0  0  0  0
   21.0803   19.7727    6.2999 H   0  0  0  0  0  0  0  0  0  0  0  0
   18.7298   18.9840    5.9023 H   0  0  0  0  0  0  0  0  0  0  0  0
   22.6663   16.1324    4.5961 H   0  0  0  0  0  0  0  0  0  0  0  0
   19.1830   12.7370    3.0117 H   0  0  0  0  0  0  0  0  0  0  0  0
   17.4067   11.1405    2.2875 H   0  0  0  0  0  0  0  0  0  0  0  0
   15.0029   11.7350    2.5703 H   0  0  0  0  0  0  0  0  0  0  0  0
   14.3592   13.9304    3.5716 H   0  0  0  0  0  0  0  0  0  0  0  0
   14.4352   16.3591    5.7261 H   0  0  0  0  0  0  0  0  0  0  0  0
   14.4867   17.2757    4.1822 H   0  0  0  0  0  0  0  0  0  0  0  0
   14.0165   15.5420    4.1822 H   0  0  0  0  0  0  0  0  0  0  0  0
   24.1224   17.9184    5.4094 H   0  0  0  0  0  0  0  0  0  0  0  0
   23.4483   19.3396    6.2510 H   0  0  0  0  0  0  0  0  0  0  0  0
  2  1  2  0
  3  2  1  0
  4  3  2  0
  5  4  1  0
  6  5  2  0
  6  1  1  0
  7  5  1  0
  8  7  2  0
  9  8  1  0
  9  4  1  0
 10  9  1  0
 11 10  2  0
 12 11  1  0
 13 12  2  0
 13  8  1  0
 14 13  1  0
 15 14  2  0
 16 15  1  0
 17 16  2  0
 17 12  1  0
 18 11  1  0
 19  1  1  0
  2 20  1  0
  3 21  1  0
  6 22  1  0
 14 23  1  0
 15 24  1  0
 16 25  1  0
 17 26  1  0
 18 27  1  0
 18 28  1  0
 18 29  1  0
 19 30  1  0
 19 31  1  0
M  END
$$$$
=
     RDKit          3D

 31 31  0  0  0  0  0  0  0  0999 V2000
   17.8610   16.0490    5.0150 C   0  0  0  0  0  0  0  0  0  0  0  0
   17.5330   17.3520    5.7830 C   0  0  0  0  0  0  0  0  0  0  0  0
   18.7380   15.1910    5.9580 C   0  0  0  0  0  0  0  0  0  0  0  0
   16.5990   15.2650    4.6020 C   0  0  0  0  0  0  0  0  0  0  0  0
   16.6480   14.3420    3.5410 C   0  0  0  0  0  0  0  0  0  0  0  0
   15.5070   13.6460    3.1310 C   0  0  0  0  0  0  0  0  0  0  0  0
   14.2820   13.8460    3.7620 C   0  0  0  0  0  0  0  0  0  0  0  0
   14.2090   14.7560    4.8110 C   0  0  0  0  0  0  0  0  0  0  0  0
   15.3520   15.4590    5.2230 C   0  0  0  0  0  0  0  0  0  0  0  0
   13.2510   13.1050    3.2610 O   0  0  0  0  0  0  0  0  0  0  0  0
   11.9320   13.5550    3.5430 C   0  0  0  0  0  0  0  0  0  0  0  0
   18.6230   16.3870    3.7020 C   0  0  0  0  0  0  0  0  0  0  0  0
   19.9250   15.6780    3.5750 N   0  0  0  0  0  4  0  0  0  0  0  0
   17.5809   17.1616    6.8653 H   0  0  0  0  0  0  0  0  0  0  0  0
   18.2634   18.1295    5.5148 H   0  0  0  0  0  0  0  0  0  0  0  0
   16.5215   17.6910    5.5148 H   0  0  0  0  0  0  0  0  0  0  0  0
   18.4940   15.4297    7.0037 H   0  0  0  0  0  0  0  0  0  0  0  0
   18.5436   14.1247    5.7703 H   0  0  0  0  0  0  0  0  0  0  0  0
   19.7998   15.4087    5.7703 H   0  0  0  0  0  0  0  0  0  0  0  0
   17.6027   14.1647    3.0241 H   0  0  0  0  0  0  0  0  0  0  0  0
   15.5779   12.9305    2.2985 H   0  0  0  0  0  0  0  0  0  0  0  0
   13.2494   14.9260    5.3212 H   0  0  0  0  0  0  0  0  0  0  0  0
   15.2705   16.1786    6.0510 H   0  0  0  0  0  0  0  0  0  0  0  0
   11.7865   13.6046    4.6322 H   0  0  0  0  0  0  0  0  0  0  0  0
   11.7845   14.5543    3.1075 H   0  0  0  0  0  0  0  0  0  0  0  0
   11.2045   12.8542    3.1075 H   0  0  0  0  0  0  0  0  0  0  0  0
   17.9884   16.1063    2.8485 H   0  0  0  0  0  0  0  0  0  0  0  0
   18.8409   17.4650    3.7214 H   0  0  0  0  0  0  0  0  0  0  0  0
   20.2982   15.4748    4.5132 H   0  0  0  0  0  0  0  0  0  0  0  0
   19.7868   14.7956    3.0619 H   0  0  0  0  0  0  0  0  0  0  0  0
   20.5912   16.2728    3.0619 H   0  0  0  0  0  0  0  0  0  0  0  0
  2  1  1  0
  3  1  1  0
  4  1  1  0
  5  4  2  0
  6  5  1  0
  7  6  2  0
  8  7  1  0
  9  8  2  0
  9  4  1  0
 10  7  1  0
 11 10  1  0
 12  1  1  0
 13 12  1  0
  2 14  1  0
  2 15  1  0
  2 16  1  0
  3 17  1  0
  3 18  1  0
  3 19  1  0
  5 20  1  0
  6 21  1  0
  8 22  1  0
  9 23  1  0
 11 24  1  0
 11 25  1  0
 11 26  1  0
 12 27  1  0
 12 28  1  0
 13 29  1  0
 13 30  1  0
 13 31  1  0
M  CHG  1  13   1
M  END
$$$$
=
     RDKit          3D

 48 50  0  0  0  0  0  0  0  0999 V2000
   15.2730   14.7940    4.7340 C   0  0  0  0  0  0  0  0  0  0  0  0
   15.4570   15.3770    5.9740 C   0  0  0  0  0  0  0  0  0  0  0  0
   16.7720   15.9030    5.9950 C   0  0  0  0  0  0  0  0  0  0  0  0
   17.3180   15.6200    4.7640 C   0  0  0  0  0  0  0  0  0  0  0  0
   16.4150   14.9430    3.9930 O   0  0  0  0  0  0  0  0  0  0  0  0
   11.9870   12.7840    2.8380 C   0  0  0  0  0  0  0  0  0  0  0  0
   11.7680   13.8580    3.7110 C   0  0  0  0  0  0  0  0  0  0  0  0
   12.8410   14.5090    4.3290 C   0  0  0  0  0  0  0  0  0  0  0  0
   14.1620   14.1070    4.0860 C   0  0  0  0  0  0  0  0  0  0  0  0
   14.3770   13.0320    3.2110 C   0  0  0  0  0  0  0  0  0  0  0  0
   13.3050   12.3770    2.5940 C   0  0  0  0  0  0  0  0  0  0  0  0
    9.5220   12.2570    2.9240 C   0  0  0  0  0  0  0  0  0  0  0  0
   10.8280   12.0800    2.1630 C   0  0  2  0  0  0  0  0  0  0  0  0
   11.1070   10.6880    2.0460 O   0  0  0  0  0  0  0  0  0  0  0  0
   18.6240   15.9000    4.1250 C   0  0  0  0  0  0  0  0  0  0  0  0
   18.9100   17.3690    4.1530 N   0  0  0  0  0  4  0  0  0  0  0  0
   20.1680   17.8020    4.8280 C   0  0  0  0  0  0  0  0  0  0  0  0
   20.6530   16.6480    5.7190 C   0  0  0  0  0  0  0  0  0  0  0  0
   22.1590   16.6850    5.9910 C   0  0  0  0  0  0  0  0  0  0  0  0
   22.7310   18.0910    5.8710 C   0  0  0  0  0  0  0  0  0  0  0  0
   22.5140   18.6730    4.4730 C   0  0  0  0  0  0  0  0  0  0  0  0
   21.2240   18.1920    3.7990 C   0  0  0  0  0  0  0  0  0  0  0  0
   14.7211   15.4236    6.7902 H   0  0  0  0  0  0  0  0  0  0  0  0
   17.2589   16.4315    6.8279 H   0  0  0  0  0  0  0  0  0  0  0  0
   10.7400   14.1933    3.9128 H   0  0  0  0  0  0  0  0  0  0  0  0
   12.6458   15.3470    5.0143 H   0  0  0  0  0  0  0  0  0  0  0  0
   15.4050   12.6983    3.0064 H   0  0  0  0  0  0  0  0  0  0  0  0
   13.4990   11.5360    1.9121 H   0  0  0  0  0  0  0  0  0  0  0  0
    9.7212   12.2300    4.0055 H   0  0  0  0  0  0  0  0  0  0  0  0
    9.0710   13.2245    2.6583 H   0  0  0  0  0  0  0  0  0  0  0  0
    8.8298   11.4445    2.6583 H   0  0  0  0  0  0  0  0  0  0  0  0
   10.7096   12.5360    1.1690 H   0  0  0  0  0  0  0  0  0  0  0  0
   11.1867   10.2904    2.9491 H   0  0  0  0  0  0  0  0  0  0  0  0
   19.4165   15.3653    4.6690 H   0  0  0  0  0  0  0  0  0  0  0  0
   18.5913   15.5610    3.0790 H   0  0  0  0  0  0  0  0  0  0  0  0
   18.9528   17.6957    3.1771 H   0  0  0  0  0  0  0  0  0  0  0  0
   18.1504   17.7784    4.7154 H   0  0  0  0  0  0  0  0  0  0  0  0
   19.9814   18.6915    5.4476 H   0  0  0  0  0  0  0  0  0  0  0  0
   20.1229   16.7033    6.6813 H   0  0  0  0  0  0  0  0  0  0  0  0
   20.4416   15.7112    5.1827 H   0  0  0  0  0  0  0  0  0  0  0  0
   22.3442   16.3130    7.0095 H   0  0  0  0  0  0  0  0  0  0  0  0
   22.6537   16.0539    5.2380 H   0  0  0  0  0  0  0  0  0  0  0  0
   22.2370   18.7409    6.6083 H   0  0  0  0  0  0  0  0  0  0  0  0
   23.8141   18.0374    6.0557 H   0  0  0  0  0  0  0  0  0  0  0  0
   22.4749   19.7692    4.5554 H   0  0  0  0  0  0  0  0  0  0  0  0
   23.3511   18.3288    3.8479 H   0  0  0  0  0  0  0  0  0  0  0  0
   21.4527   17.3174    3.1724 H   0  0  0  0  0  0  0  0  0  0  0  0
   20.8247   19.0163    3.1898 H   0  0  0  0  0  0  0  0  0  0  0  0
  2  1  2  0
  3  2  1  0
  4  3  2  0
  5  1  1  0
  5  4  1  0
  7  6  2  0
  8  7  1  0
  9  8  2  0
  9  1  1  0
 10  9  1  0
 11 10  2  0
 11  6  1  0
 13 12  1  0
 13  6  1  0
 14 13  1  0
 15  4  1  0
 16 15  1  0
 17 16  1  0
 18 17  1  0
 19 18  1  0
 20 19  1  0
 21 20  1  0
 22 17  1  0
 22 21  1  0
  2 23  1  0
  3 24  1  0
  7 25  1  0
  8 26  1  0
 10 27  1  0
 11 28  1  0
 12 29  1  0
 12 30  1  0
 12 31  1  0
 13 32  1  6
 14 33  1  0
 15 34  1  0
 15 35  1  0
 16 36  1  0
 16 37  1  0
 17 38  1  0
 18 39  1  0
 18 40  1  0
 19 41  1  0
 19 42  1  0
 20 43  1  0
 20 44  1  0
 21 45  1  0
 21 46  1  0
 22 47  1  0
 22 48  1  0
M  CHG  1  16   1
M  END
$$$$
=
     RDKit          3D

 40 42  0  0  0  0  0  0  0  0999 V2000
   15.4220   15.9620    4.8000 O   0  0  0  0  0  0  0  0  0  0  0  0
   15.1550   14.7900    4.1260 C   0  0  0  0  0  0  0  0  0  0  0  0
   16.2990   14.1920    3.5800 C   0  0  0  0  0  0  0  0  0  0  0  0
   16.1950   13.0180    2.8490 C   0  0  0  0  0  0  0  0  0  0  0  0
   14.9420   12.4510    2.6470 C   0  0  0  0  0  0  0  0  0  0  0  0
   13.7870   13.0620    3.1660 C   0  0  0  0  0  0  0  0  0  0  0  0
   13.8660   14.2590    3.9180 C   0  0  0  0  0  0  0  0  0  0  0  0
   12.7370   14.8530    4.3960 N   0  0  0  0  0  0  0  0  0  0  0  0
   11.5410   14.2720    4.1370 C   0  0  0  0  0  0  0  0  0  0  0  0
   11.3860   13.1040    3.4230 C   0  0  0  0  0  0  0  0  0  0  0  0
   12.5300   12.4920    2.9320 C   0  0  0  0  0  0  0  0  0  0  0  0
   16.2410   15.8260    5.9620 C   0  0  0  0  0  0  0  0  0  0  0  0
   17.3380   16.8850    5.8900 C   0  0  0  0  0  0  0  0  0  0  0  0
   20.6720   14.9580    6.4250 C   0  0  0  0  0  0  0  0  0  0  0  0
   21.3580   15.5690    5.2120 C   0  0  0  0  0  0  0  0  0  0  0  0
   21.0680   17.0600    5.0760 C   0  0  0  0  0  0  0  0  0  0  0  0
   19.7200   17.4040    5.6240 N   0  0  0  0  0  4  0  0  0  0  0  0
   18.6950   16.3110    5.4990 C   0  0  1  0  0  0  0  0  0  0  0  0
   19.1500   15.1340    6.3720 C   0  0  0  0  0  0  0  0  0  0  0  0
   17.2845   14.6563    3.7321 H   0  0  0  0  0  0  0  0  0  0  0  0
   17.0946   12.5405    2.4334 H   0  0  0  0  0  0  0  0  0  0  0  0
   14.8533   11.5153    2.0756 H   0  0  0  0  0  0  0  0  0  0  0  0
   10.6356   14.7643    4.5214 H   0  0  0  0  0  0  0  0  0  0  0  0
   10.3897   12.6717    3.2483 H   0  0  0  0  0  0  0  0  0  0  0  0
   12.4493   11.5572    2.3578 H   0  0  0  0  0  0  0  0  0  0  0  0
   15.6340   15.9777    6.8668 H   0  0  0  0  0  0  0  0  0  0  0  0
   16.6826   14.8194    6.0036 H   0  0  0  0  0  0  0  0  0  0  0  0
   17.0484   17.6396    5.1439 H   0  0  0  0  0  0  0  0  0  0  0  0
   17.4419   17.3201    6.8949 H   0  0  0  0  0  0  0  0  0  0  0  0
   20.9044   13.8834    6.4609 H   0  0  0  0  0  0  0  0  0  0  0  0
   21.0432   15.4750    7.3221 H   0  0  0  0  0  0  0  0  0  0  0  0
   22.4443   15.4270    5.3106 H   0  0  0  0  0  0  0  0  0  0  0  0
   20.9681   15.0661    4.3147 H   0  0  0  0  0  0  0  0  0  0  0  0
   21.8337   17.6256    5.6271 H   0  0  0  0  0  0  0  0  0  0  0  0
   21.0850   17.3207    4.0075 H   0  0  0  0  0  0  0  0  0  0  0  0
   19.8277   17.6305    6.6230 H   0  0  0  0  0  0  0  0  0  0  0  0
   19.3715   18.1959    5.0651 H   0  0  0  0  0  0  0  0  0  0  0  0
   18.5955   15.9306    4.4717 H   0  0  0  0  0  0  0  0  0  0  0  0
   18.7837   15.2992    7.3960 H   0  0  0  0  0  0  0  0  0  0  0  0
   18.7363   14.2202    5.9205 H   0  0  0  0  0  0  0  0  0  0  0  0
  2  1  1  0
  3  2  2  0
  4  3  1  0
  5  4  2  0
  6  5  1  0
  7  6  2  0
  7  2  1  0
  8  7  1  0
  9  8  2  0
 10  9  1  0
 11 10  2  0
 11  6  1  0
 12  1  1  0
 13 12  1  0
 15 14  1  0
 16 15  1  0
 17 16  1  0
 18 17  1  0
 18 13  1  0
 19 18  1  0
 19 14  1  0
  3 20  1  0
  4 21  1  0
  5 22  1  0
  9 23  1  0
 10 24  1  0
 11 25  1  0
 12 26  1  0
 12 27  1  0
 13 28  1  0
 13 29  1  0
 14 30  1  0
 14 31  1  0
 15 32  1  0
 15 33  1  0
 16 34  1  0
 16 35  1  0
 17 36  1  0
 17 37  1  0
 18 38  1  6
 19 39  1  0
 19 40  1  0
M  CHG  1  17   1
M  END
$$$$
=
     RDKit          3D

 37 38  0  0  0  0  0  0  0  0999 V2000
   17.3610   16.4220    4.2260 C   0  0  1  0  0  0  0  0  0  0  0  0
   18.8220   16.9070    4.5330 N   0  0  0  0  0  4  0  0  0  0  0  0
   19.4790   17.5820    3.2940 C   0  0  0  0  0  0  0  0  0  0  0  0
   20.9940   17.8520    3.5180 C   0  0  0  0  0  0  0  0  0  0  0  0
   21.3080   18.3530    4.9250 N   0  0  0  0  0  4  0  0  0  0  0  0
   20.1030   18.8580    5.6900 C   0  0  0  0  0  0  0  0  0  0  0  0
   18.9460   17.8170    5.7720 C   0  0  0  0  0  0  0  0  0  0  0  0
   22.2140   17.4350    5.7190 C   0  0  0  0  0  0  0  0  0  0  0  0
   17.3680   14.9830    3.7700 C   0  0  0  0  0  0  0  0  0  0  0  0
   16.2510   14.3190    3.2870 C   0  0  0  0  0  0  0  0  0  0  0  0
   16.5740   12.6960    2.8620 S   0  0  0  0  0  0  0  0  0  0  0  0
   18.2110   12.8430    3.3160 C   0  0  0  0  0  0  0  0  0  0  0  0
   18.5100   14.1040    3.7810 C   0  0  0  0  0  0  0  0  0  0  0  0
   16.3600   16.5850    5.4510 C   0  0  0  0  0  0  0  0  0  0  0  0
   16.5810   15.5980    6.5640 N   0  0  0  0  0  4  0  0  0  0  0  0
   16.9911   17.0771    3.4235 H   0  0  0  0  0  0  0  0  0  0  0  0
   19.3383   16.0452    4.7600 H   0  0  0  0  0  0  0  0  0  0  0  0
   19.3603   16.9202    2.4234 H   0  0  0  0  0  0  0  0  0  0  0  0
   18.9808   18.5484    3.1273 H   0  0  0  0  0  0  0  0  0  0  0  0
   21.5460   16.9159    3.3478 H   0  0  0  0  0  0  0  0  0  0  0  0
   21.2959   18.6403    2.8127 H   0  0  0  0  0  0  0  0  0  0  0  0
   21.8760   19.1988    4.7735 H   0  0  0  0  0  0  0  0  0  0  0  0
   20.4191   19.1103    6.7129 H   0  0  0  0  0  0  0  0  0  0  0  0
   19.7162   19.7339    5.1486 H   0  0  0  0  0  0  0  0  0  0  0  0
   17.9991   18.3633    5.8944 H   0  0  0  0  0  0  0  0  0  0  0  0
   19.1735   17.1596    6.6241 H   0  0  0  0  0  0  0  0  0  0  0  0
   22.0514   17.5997    6.7944 H   0  0  0  0  0  0  0  0  0  0  0  0
   21.9850   16.3884    5.4696 H   0  0  0  0  0  0  0  0  0  0  0  0
   23.2635   17.6502    5.4696 H   0  0  0  0  0  0  0  0  0  0  0  0
   15.2608   14.7878    3.1878 H   0  0  0  0  0  0  0  0  0  0  0  0
   18.9433   12.0252    3.2455 H   0  0  0  0  0  0  0  0  0  0  0  0
   19.5105   14.4072    4.1232 H   0  0  0  0  0  0  0  0  0  0  0  0
   16.4786   17.5990    5.8607 H   0  0  0  0  0  0  0  0  0  0  0  0
   15.3490   16.3986    5.0597 H   0  0  0  0  0  0  0  0  0  0  0  0
   16.4744   16.0740    7.4712 H   0  0  0  0  0  0  0  0  0  0  0  0
   15.8893   14.8383    6.4915 H   0  0  0  0  0  0  0  0  0  0  0  0
   17.5306   15.2058    6.4915 H   0  0  0  0  0  0  0  0  0  0  0  0
  2  1  1  0
  3  2  1  0
  4  3  1  0
  5  4  1  0
  6  5  1  0
  7  2  1  0
  7  6  1  0
  8  5  1  0
  9  1  1  0
 10  9  2  0
 11 10  1  0
 12 11  1  0
 13 12  2  0
 13  9  1  0
 14  1  1  0
 15 14  1  0
  1 16  1  6
  2 17  1  0
  3 18  1  0
  3 19  1  0
  4 20  1  0
  4 21  1  0
  5 22  1  0
  6 23  1  0
  6 24  1  0
  7 25  1  0
  7 26  1  0
  8 27  1  0
  8 28  1  0
  8 29  1  0
 10 30  1  0
 12 31  1  0
 13 32  1  0
 14 33  1  0
 14 34  1  0
 15 35  1  0
 15 36  1  0
 15 37  1  0
M  CHG  3   2   1   5   1  15   1
M  END
$$$$
=
     RDKit          3D

 33 35  0  0  0  0  0  0  0  0999 V2000
   17.4930   17.7450    6.0650 O   0  0  0  0  0  0  0  0  0  0  0  0
   18.5430   17.5130    5.4960 C   0  0  0  0  0  0  0  0  0  0  0  0
   19.7070   18.4680    5.4310 C   0  0  0  0  0  0  0  0  0  0  0  0
   20.4970   17.9310    4.2460 C   0  0  2  0  0  0  0  0  0  0  0  0
   20.2210   16.4310    4.2480 C   0  0  0  0  0  0  0  0  0  0  0  0
   18.9170   16.3460    4.8380 N   0  0  0  0  0  0  0  0  0  0  0  0
   21.9440   18.2490    4.3830 N   0  0  0  0  0  4  0  0  0  0  0  0
   18.0770   15.2010    4.6800 C   0  0  2  0  0  0  0  0  0  0  0  0
   18.3690   14.1620    3.6380 C   0  0  0  0  0  0  0  0  0  0  0  0
   17.1570   15.0460    3.4830 C   0  0  1  0  0  0  0  0  0  0  0  0
   15.7730   14.4690    3.6610 C   0  0  0  0  0  0  0  0  0  0  0  0
   14.7320   15.2170    4.2400 C   0  0  0  0  0  0  0  0  0  0  0  0
   13.4480   14.6840    4.3880 C   0  0  0  0  0  0  0  0  0  0  0  0
   13.1770   13.3910    3.9520 C   0  0  0  0  0  0  0  0  0  0  0  0
   14.1860   12.6330    3.3670 C   0  0  0  0  0  0  0  0  0  0  0  0
   15.4680   13.1700    3.2230 C   0  0  0  0  0  0  0  0  0  0  0  0
   19.3678   19.4987    5.2502 H   0  0  0  0  0  0  0  0  0  0  0  0
   20.2889   18.5193    6.3631 H   0  0  0  0  0  0  0  0  0  0  0  0
   20.1984   18.3877    3.2909 H   0  0  0  0  0  0  0  0  0  0  0  0
   20.2194   16.0275    3.2247 H   0  0  0  0  0  0  0  0  0  0  0  0
   20.9817   15.8501    4.7900 H   0  0  0  0  0  0  0  0  0  0  0  0
   22.1906   18.3032    5.3816 H   0  0  0  0  0  0  0  0  0  0  0  0
   22.5021   17.5106    3.9311 H   0  0  0  0  0  0  0  0  0  0  0  0
   22.1411   19.1534    3.9311 H   0  0  0  0  0  0  0  0  0  0  0  0
   17.9369   15.1957    5.7710 H   0  0  0  0  0  0  0  0  0  0  0  0
   19.2293   14.2878    2.9641 H   0  0  0  0  0  0  0  0  0  0  0  0
   18.5377   13.0751    3.6542 H   0  0  0  0  0  0  0  0  0  0  0  0
   16.7745   15.7176    2.7003 H   0  0  0  0  0  0  0  0  0  0  0  0
   14.9323   16.2426    4.5835 H   0  0  0  0  0  0  0  0  0  0  0  0
   12.6520   15.2870    4.8492 H   0  0  0  0  0  0  0  0  0  0  0  0
   12.1678   12.9693    4.0695 H   0  0  0  0  0  0  0  0  0  0  0  0
   13.9749   11.6114    3.0179 H   0  0  0  0  0  0  0  0  0  0  0  0
   16.2563   12.5614    2.7559 H   0  0  0  0  0  0  0  0  0  0  0  0
  2  1  2  0
  3  2  1  0
  4  3  1  0
  5  4  1  0
  6  5  1  0
  6  2  1  0
  7  4  1  0
  8  6  1  0
  9  8  1  0
 10  9  1  0
 10  8  1  0
 11 10  1  0
 12 11  2  0
 13 12  1  0
 14 13  2  0
 15 14  1  0
 16 15  2  0
 16 11  1  0
  3 17  1  0
  3 18  1  0
  4 19  1  6
  5 20  1  0
  5 21  1  0
  7 22  1  0
  7 23  1  0
  7 24  1  0
  8 25  1  1
  9 26  1  0
  9 27  1  0
 10 28  1  6
 12 29  1  0
 13 30  1  0
 14 31  1  0
 15 32  1  0
 16 33  1  0
M  CHG  1   7   1
M  END
$$$$
=
     RDKit          3D

 22 22  0  0  0  0  0  0  0  0999 V2000
   19.6260   17.3600    2.1440 C   0  0  0  0  0  0  0  0  0  0  0  0
   19.5540   16.7370    3.5360 C   0  0  2  0  0  0  0  0  0  0  0  0
   20.7370   17.1590    4.3770 C   0  0  0  0  0  0  0  0  0  0  0  0
   21.0640   16.5130    5.5610 C   0  0  0  0  0  0  0  0  0  0  0  0
   22.1140   16.8920    6.3190 N   0  0  0  0  0  0  0  0  0  0  0  0
   22.8250   17.9500    5.8660 C   0  0  0  0  0  0  0  0  0  0  0  0
   22.5030   18.6030    4.6900 C   0  0  0  0  0  0  0  0  0  0  0  0
   21.4560   18.2260    3.9110 N   0  0  0  0  0  0  0  0  0  0  0  0
   19.5540   15.2310    3.3620 N   0  0  0  0  0  4  0  0  0  0  0  0
   18.3440   14.5380    3.8680 C   0  0  0  0  0  0  0  0  0  0  0  0
   19.7518   18.4489    2.2357 H   0  0  0  0  0  0  0  0  0  0  0  0
   20.4812   16.9369    1.5967 H   0  0  0  0  0  0  0  0  0  0  0  0
   18.6968   17.1431    1.5967 H   0  0  0  0  0  0  0  0  0  0  0  0
   18.6427   17.0732    4.0523 H   0  0  0  0  0  0  0  0  0  0  0  0
   20.4472   15.6645    5.8922 H   0  0  0  0  0  0  0  0  0  0  0  0
   23.6869   18.3023    6.4517 H   0  0  0  0  0  0  0  0  0  0  0  0
   23.1173   19.4590    4.3740 H   0  0  0  0  0  0  0  0  0  0  0  0
   19.6417   15.0262    2.3564 H   0  0  0  0  0  0  0  0  0  0  0  0
   20.3421   14.8779    3.9234 H   0  0  0  0  0  0  0  0  0  0  0  0
   18.3519   14.5425    4.9680 H   0  0  0  0  0  0  0  0  0  0  0  0
   17.4450   15.0582    3.5056 H   0  0  0  0  0  0  0  0  0  0  0  0
   18.3378   13.4994    3.5056 H   0  0  0  0  0  0  0  0  0  0  0  0
  2  1  1  0
  3  2  1  0
  4  3  2  0
  5  4  1  0
  6  5  2  0
  7  6  1  0
  8  3  1  0
  8  7  2  0
  9  2  1  0
 10  9  1  0
  1 11  1  0
  1 12  1  0
  1 13  1  0
  2 14  1  1
  4 15  1  0
  6 16  1  0
  7 17  1  0
  9 18  1  0
  9 19  1  0
 10 20  1  0
 10 21  1  0
 10 22  1  0
M  CHG  1   9   1
M  END
$$$$
=
     RDKit          3D

 23 24  0  0  0  0  0  0  0  0999 V2000
   20.7160   17.4460    5.2060 C   0  0  2  0  0  0  0  0  0  0  0  0
   21.2670   18.4180    4.1720 C   0  0  0  0  0  0  0  0  0  0  0  0
   22.6090   18.8430    4.7200 N   0  0  0  0  0  4  0  0  0  0  0  0
   22.9080   18.0040    5.9280 C   0  0  0  0  0  0  0  0  0  0  0  0
   21.9720   16.8200    5.7970 C   0  0  0  0  0  0  0  0  0  0  0  0
   16.7840   14.9570    3.5720 C   0  0  0  0  0  0  0  0  0  0  0  0
   18.1670   15.3730    3.8710 C   0  0  0  0  0  0  0  0  0  0  0  0
   19.2340   14.6680    3.4720 N   0  0  0  0  0  0  0  0  0  0  0  0
   20.3100   15.3990    3.9670 O   0  0  0  0  0  0  0  0  0  0  0  0
   19.7780   16.4760    4.6100 C   0  0  0  0  0  0  0  0  0  0  0  0
   18.4690   16.5170    4.5690 N   0  0  0  0  0  0  0  0  0  0  0  0
   20.1013   17.9260    5.9817 H   0  0  0  0  0  0  0  0  0  0  0  0
   21.3858   17.9214    3.1977 H   0  0  0  0  0  0  0  0  0  0  0  0
   20.5957   19.2736    4.0067 H   0  0  0  0  0  0  0  0  0  0  0  0
   23.3382   18.7000    4.0068 H   0  0  0  0  0  0  0  0  0  0  0  0
   22.5898   19.8407    4.9751 H   0  0  0  0  0  0  0  0  0  0  0  0
   23.9574   17.6743    5.9243 H   0  0  0  0  0  0  0  0  0  0  0  0
   22.7638   18.5537    6.8698 H   0  0  0  0  0  0  0  0  0  0  0  0
   21.7652   16.3680    6.7783 H   0  0  0  0  0  0  0  0  0  0  0  0
   22.3833   16.0059    5.1821 H   0  0  0  0  0  0  0  0  0  0  0  0
   16.2388   14.7930    4.5132 H   0  0  0  0  0  0  0  0  0  0  0  0
   16.2821   15.7439    2.9899 H   0  0  0  0  0  0  0  0  0  0  0  0
   16.7995   14.0238    2.9899 H   0  0  0  0  0  0  0  0  0  0  0  0
  2  1  1  0
  3  2  1  0
  4  3  1  0
  5  1  1  0
  5  4  1  0
  7  6  1  0
  8  7  2  0
  9  8  1  0
 10  9  1  0
 10  1  1  0
 11  7  1  0
 11 10  2  0
  1 12  1  1
  2 13  1  0
  2 14  1  0
  3 15  1  0
  3 16  1  0
  4 17  1  0
  4 18  1  0
  5 19  1  0
  5 20  1  0
  6 21  1  0
  6 22  1  0
  6 23  1  0
M  CHG  1   3   1
M  END
$$$$
=
     RDKit          3D

 45 47  0  0  0  0  0  0  0  0999 V2000
    8.7090   12.4670    2.5700 C   0  0  0  0  0  0  0  0  0  0  0  0
    9.5740   13.3900    3.1740 C   0  0  0  0  0  0  0  0  0  0  0  0
   10.9600   13.2240    3.1110 C   0  0  0  0  0  0  0  0  0  0  0  0
   11.4840   12.1340    2.4190 C   0  0  0  0  0  0  0  0  0  0  0  0
   10.6250   11.2120    1.8100 C   0  0  0  0  0  0  0  0  0  0  0  0
    9.2360   11.3350    1.9170 C   0  0  0  0  0  0  0  0  0  0  0  0
    8.4170   10.4470    1.1950 N   0  0  0  0  0  0  0  0  0  0  0  0
    6.9380   12.7610    2.6310 S   0  0  0  0  0  0  0  0  0  0  0  0
    6.6120   11.7330    5.2580 C   0  0  0  0  0  0  0  0  0  0  0  0
    6.1600   10.7390    6.1440 C   0  0  0  0  0  0  0  0  0  0  0  0
    5.5400    9.5870    5.6600 C   0  0  0  0  0  0  0  0  0  0  0  0
    5.3730    9.4170    4.2900 C   0  0  0  0  0  0  0  0  0  0  0  0
    5.8210   10.3990    3.4030 C   0  0  0  0  0  0  0  0  0  0  0  0
    6.4380   11.5720    3.8730 C   0  0  0  0  0  0  0  0  0  0  0  0
    7.3000   12.9160    5.8290 C   0  0  0  0  0  0  0  0  0  0  0  0
    6.8680   14.0570    5.8170 O   0  0  0  0  0  0  0  0  0  0  0  0
    9.3410   13.5870    6.7460 C   0  0  0  0  0  0  0  0  0  0  0  0
    8.4770   12.5140    6.3730 O   0  0  0  0  0  0  0  0  0  0  0  0
   11.6780   14.1970    3.7480 O   0  0  0  0  0  0  0  0  0  0  0  0
   12.5670   13.7790    4.7800 C   0  0  0  0  0  0  0  0  0  0  0  0
   13.9740   14.1210    4.3540 C   0  0  0  0  0  0  0  0  0  0  0  0
   14.6950   13.2630    3.5120 C   0  0  0  0  0  0  0  0  0  0  0  0
   15.9990   13.5790    3.1280 C   0  0  0  0  0  0  0  0  0  0  0  0
   16.5990   14.7500    3.5890 C   0  0  0  0  0  0  0  0  0  0  0  0
   15.8960   15.6040    4.4390 C   0  0  0  0  0  0  0  0  0  0  0  0
   14.5920   15.2900    4.8220 C   0  0  0  0  0  0  0  0  0  0  0  0
    9.1556   14.2576    3.7053 H   0  0  0  0  0  0  0  0  0  0  0  0
   12.5735   11.9981    2.3513 H   0  0  0  0  0  0  0  0  0  0  0  0
   11.0502   10.3751    1.2366 H   0  0  0  0  0  0  0  0  0  0  0  0
    7.3919   10.5223    1.2613 H   0  0  0  0  0  0  0  0  0  0  0  0
    8.8427    9.7218    0.6002 H   0  0  0  0  0  0  0  0  0  0  0  0
    6.2964   10.8709    7.2275 H   0  0  0  0  0  0  0  0  0  0  0  0
    5.1845    8.8160    6.3594 H   0  0  0  0  0  0  0  0  0  0  0  0
    4.8876    8.5084    3.9043 H   0  0  0  0  0  0  0  0  0  0  0  0
    5.6891   10.2525    2.3208 H   0  0  0  0  0  0  0  0  0  0  0  0
    9.3930   13.6516    7.8429 H   0  0  0  0  0  0  0  0  0  0  0  0
   10.3475   13.4049    6.3413 H   0  0  0  0  0  0  0  0  0  0  0  0
    8.9484   14.5315    6.3413 H   0  0  0  0  0  0  0  0  0  0  0  0
   12.3234   14.3022    5.7165 H   0  0  0  0  0  0  0  0  0  0  0  0
   12.4726   12.6961    4.9488 H   0  0  0  0  0  0  0  0  0  0  0  0
   14.2296   12.3339    3.1513 H   0  0  0  0  0  0  0  0  0  0  0  0
   16.5541   12.9033    2.4607 H   0  0  0  0  0  0  0  0  0  0  0  0
   17.6255   15.0002    3.2828 H   0  0  0  0  0  0  0  0  0  0  0  0
   16.3703   16.5256    4.8074 H   0  0  0  0  0  0  0  0  0  0  0  0
   14.0440   15.9645    5.4964 H   0  0  0  0  0  0  0  0  0  0  0  0
  2  1  2  0
  3  2  1  0
  4  3  2  0
  5  4  1  0
  6  5  2  0
  6  1  1  0
  7  6  1  0
  8  1  1  0
 10  9  2  0
 11 10  1  0
 12 11  2  0
 13 12  1  0
 14 13  2  0
 14  9  1  0
 14  8  1  0
 15  9  1  0
 16 15  2  0
 18 17  1  0
 18 15  1  0
 19  3  1  0
 20 19  1  0
 21 20  1  0
 22 21  2  0
 23 22  1  0
 24 23  2  0
 25 24  1  0
 26 25  2  0
 26 21  1  0
  2 27  1  0
  4 28  1  0
  5 29  1  0
  7 30  1  0
  7 31  1  0
 10 32  1  0
 11 33  1  0
 12 34  1  0
 13 35  1  0
 17 36  1  0
 17 37  1  0
 17 38  1  0
 20 39  1  0
 20 40  1  0
 22 41  1  0
 23 42  1  0
 24 43  1  0
 25 44  1  0
 26 45  1  0
M  END
$$$$
=
     RDKit          3D

 26 26  0  0  0  0  0  0  0  0999 V2000
   17.7350   15.1760    4.2760 C   0  0  0  0  0  0  0  0  0  0  0  0
   16.6590   15.9090    4.7980 C   0  0  0  0  0  0  0  0  0  0  0  0
   15.3410   15.5130    4.5500 C   0  0  0  0  0  0  0  0  0  0  0  0
   15.0800   14.3720    3.7960 C   0  0  0  0  0  0  0  0  0  0  0  0
   16.1360   13.6280    3.2700 C   0  0  0  0  0  0  0  0  0  0  0  0
   17.4550   14.0440    3.4660 C   0  0  0  0  0  0  0  0  0  0  0  0
   18.5240   13.2340    3.0100 N   0  0  0  0  0  0  0  0  0  0  0  0
   19.0980   15.5020    4.5320 N   0  0  0  0  0  0  0  0  0  0  0  0
   19.6370   16.5690    3.6860 C   0  0  0  0  0  0  0  0  0  0  0  0
   19.2920   15.7060    5.9860 C   0  0  0  0  0  0  0  0  0  0  0  0
   20.3880   14.7840    6.5360 C   0  0  0  0  0  0  0  0  0  0  0  0
   21.4510   15.5390    7.1120 O   0  0  0  0  0  0  0  0  0  0  0  0
   16.8537   16.8034    5.4080 H   0  0  0  0  0  0  0  0  0  0  0  0
   14.5064   16.1058    4.9526 H   0  0  0  0  0  0  0  0  0  0  0  0
   14.0415   14.0575    3.6152 H   0  0  0  0  0  0  0  0  0  0  0  0
   15.9295   12.7108    2.6990 H   0  0  0  0  0  0  0  0  0  0  0  0
   19.4977   13.5379    3.1530 H   0  0  0  0  0  0  0  0  0  0  0  0
   18.3275   12.3412    2.5355 H   0  0  0  0  0  0  0  0  0  0  0  0
   20.0421   17.3709    4.3207 H   0  0  0  0  0  0  0  0  0  0  0  0
   20.4386   16.1638    3.0509 H   0  0  0  0  0  0  0  0  0  0  0  0
   18.8352   16.9737    3.0509 H   0  0  0  0  0  0  0  0  0  0  0  0
   19.5801   16.7523    6.1659 H   0  0  0  0  0  0  0  0  0  0  0  0
   18.3484   15.4688    6.4992 H   0  0  0  0  0  0  0  0  0  0  0  0
   19.9539   14.1291    7.3059 H   0  0  0  0  0  0  0  0  0  0  0  0
   20.7928   14.1874    5.7052 H   0  0  0  0  0  0  0  0  0  0  0  0
   21.3896   15.4954    8.0991 H   0  0  0  0  0  0  0  0  0  0  0  0
  2  1  2  0
  3  2  1  0
  4  3  2  0
  5  4  1  0
  6  5  2  0
  6  1  1  0
  7  6  1  0
  8  1  1  0
  9  8  1  0
 10  8  1  0
 11 10  1  0
 12 11  1  0
  2 13  1  0
  3 14  1  0
  4 15  1  0
  5 16  1  0
  7 17  1  0
  7 18  1  0
  9 19  1  0
  9 20  1  0
  9 21  1  0
 10 22  1  0
 10 23  1  0
 11 24  1  0
 11 25  1  0
 12 26  1  0
M  END
$$$$
=
     RDKit          3D

 40 41  0  0  0  0  0  0  0  0999 V2000
   16.5600   13.9910    3.6330 C   0  0  0  0  0  0  0  0  0  0  0  0
   15.2490   13.5080    3.5090 C   0  0  0  0  0  0  0  0  0  0  0  0
   14.1820   14.2590    4.0280 C   0  0  0  0  0  0  0  0  0  0  0  0
   14.4550   15.4950    4.6430 C   0  0  0  0  0  0  0  0  0  0  0  0
   15.7670   15.9700    4.7540 C   0  0  0  0  0  0  0  0  0  0  0  0
   16.8280   15.2100    4.2630 C   0  0  0  0  0  0  0  0  0  0  0  0
   12.7570   13.7690    3.8870 C   0  0  0  0  0  0  0  0  0  0  0  0
   12.5150   13.2100    2.6720 F   0  0  0  0  0  0  0  0  0  0  0  0
   11.8520   14.7730    4.0350 F   0  0  0  0  0  0  0  0  0  0  0  0
   12.4330   12.8220    4.8080 F   0  0  0  0  0  0  0  0  0  0  0  0
   17.3510   12.0620    2.6540 O   0  0  0  0  0  1  0  0  0  0  0  0
   17.6440   13.1830    3.1030 N   0  0  0  0  0  4  0  0  0  0  0  0
   18.7740   13.6830    3.1010 O   0  0  0  0  0  0  0  0  0  0  0  0
   18.0860   15.7460    4.3140 O   0  0  0  0  0  0  0  0  0  0  0  0
   18.1500   16.8650    5.2060 C   0  0  0  0  0  0  0  0  0  0  0  0
   19.1800   17.8390    4.6330 C   0  0  0  0  0  0  0  0  0  0  0  0
   20.3910   17.1540    3.9930 C   0  0  1  0  0  0  0  0  0  0  0  0
   21.4270   18.1490    3.4550 C   0  0  0  0  0  0  0  0  0  0  0  0
   22.1980   18.8650    4.5620 C   0  0  0  0  0  0  0  0  0  0  0  0
   22.8370   17.8690    5.5240 C   0  0  0  0  0  0  0  0  0  0  0  0
   21.8200   16.8890    6.0830 C   0  0  0  0  0  0  0  0  0  0  0  0
   21.0870   16.2290    4.9560 N   0  0  0  0  0  4  0  0  0  0  0  0
   15.0580   12.5473    3.0085 H   0  0  0  0  0  0  0  0  0  0  0  0
   13.6252   16.0966    5.0423 H   0  0  0  0  0  0  0  0  0  0  0  0
   15.9611   16.9431    5.2287 H   0  0  0  0  0  0  0  0  0  0  0  0
   17.1659   17.3520    5.2714 H   0  0  0  0  0  0  0  0  0  0  0  0
   18.4367   16.5429    6.2180 H   0  0  0  0  0  0  0  0  0  0  0  0
   18.6858   18.4554    3.8676 H   0  0  0  0  0  0  0  0  0  0  0  0
   19.5586   18.4363    5.4755 H   0  0  0  0  0  0  0  0  0  0  0  0
   19.9776   16.5799    3.1507 H   0  0  0  0  0  0  0  0  0  0  0  0
   22.1444   17.6020    2.8256 H   0  0  0  0  0  0  0  0  0  0  0  0
   20.8817   18.9157    2.8850 H   0  0  0  0  0  0  0  0  0  0  0  0
   22.9875   19.4818    4.1078 H   0  0  0  0  0  0  0  0  0  0  0  0
   21.4927   19.4914    5.1278 H   0  0  0  0  0  0  0  0  0  0  0  0
   23.6156   17.3064    4.9881 H   0  0  0  0  0  0  0  0  0  0  0  0
   23.2642   18.4340    6.3656 H   0  0  0  0  0  0  0  0  0  0  0  0
   22.3382   16.1244    6.6804 H   0  0  0  0  0  0  0  0  0  0  0  0
   21.1030   17.4291    6.7188 H   0  0  0  0  0  0  0  0  0  0  0  0
   20.3761   15.6054    5.3642 H   0  0  0  0  0  0  0  0  0  0  0  0
   21.8064   15.7412    4.4034 H   0  0  0  0  0  0  0  0  0  0  0  0
  2  1  2  0
  3  2  1  0
  4  3  2  0
  5  4  1  0
  6  5  2  0
  6  1  1  0
  7  3  1  0
  8  7  1  0
  9  7  1  0
 10  7  1  0
 12 11  1  0
 12  1  1  0
 13 12  2  0
 14  6  1  0
 15 14  1  0
 16 15  1  0
 17 16  1  0
 18 17  1  0
 19 18  1  0
 20 19  1  0
 21 20  1  0
 22 17  1  0
 22 21  1  0
  2 23  1  0
  4 24  1  0
  5 25  1  0
 15 26  1  0
 15 27  1  0
 16 28  1  0
 16 29  1  0
 17 30  1  6
 18 31  1  0
 18 32  1  0
 19 33  1  0
 19 34  1  0
 20 35  1  0
 20 36  1  0
 21 37  1  0
 21 38  1  0
 22 39  1  0
 22 40  1  0
M  CHG  3  11  -1  12   1  22   1
M  END
$$$$
=
     RDKit          3D

 33 35  0  0  0  0  0  0  0  0999 V2000
   30.6160   24.0600   17.6490 N   0  0  0  0  0  0  0  0  0  0  0  0
   30.0620   25.0000   16.8100 C   0  0  0  0  0  0  0  0  0  0  0  0
   29.0780   24.6050   16.0020 N   0  0  0  0  0  0  0  0  0  0  0  0
   28.5180   25.5100   15.1710 C   0  0  0  0  0  0  0  0  0  0  0  0
   28.9540   26.8340   15.1790 C   0  0  0  0  0  0  0  0  0  0  0  0
   29.9540   27.1600   16.0790 C   0  0  0  0  0  0  0  0  0  0  0  0
   30.5150   26.2500   16.9000 N   0  0  0  0  0  0  0  0  0  0  0  0
   30.4970   28.5590   16.1740 C   0  0  0  0  0  0  0  0  0  0  0  0
   29.4200   29.5750   15.8270 C   0  0  0  0  0  0  0  0  0  0  0  0
   28.8680   29.3030   14.4370 C   0  0  0  0  0  0  0  0  0  0  0  0
   28.4140   27.8680   14.2630 C   0  0  0  0  0  0  0  0  0  0  0  0
   27.6650   27.5510   13.3420 O   0  0  0  0  0  0  0  0  0  0  0  0
   27.4310   25.1350   14.3460 N   0  0  0  0  0  0  0  0  0  0  0  0
   27.3290   24.3000   13.2180 C   0  0  0  0  0  0  0  0  0  0  0  0
   26.1270   23.7870   12.7230 C   0  0  0  0  0  0  0  0  0  0  0  0
   26.0950   22.9960   11.5670 C   0  0  0  0  0  0  0  0  0  0  0  0
   27.2710   22.7200   10.8740 C   0  0  0  0  0  0  0  0  0  0  0  0
   28.4750   23.2390   11.3330 C   0  0  0  0  0  0  0  0  0  0  0  0
   28.5000   24.0270   12.4880 C   0  0  0  0  0  0  0  0  0  0  0  0
   31.3785   24.3260   18.2884 H   0  0  0  0  0  0  0  0  0  0  0  0
   30.2681   23.0906   17.6375 H   0  0  0  0  0  0  0  0  0  0  0  0
   30.8491   28.7414   17.2000 H   0  0  0  0  0  0  0  0  0  0  0  0
   31.3286   28.6661   15.4620 H   0  0  0  0  0  0  0  0  0  0  0  0
   28.6044   29.5048   16.5617 H   0  0  0  0  0  0  0  0  0  0  0  0
   29.8589   30.5835   15.8472 H   0  0  0  0  0  0  0  0  0  0  0  0
   28.0095   29.9682   14.2621 H   0  0  0  0  0  0  0  0  0  0  0  0
   29.6767   29.4874   13.7145 H   0  0  0  0  0  0  0  0  0  0  0  0
   26.5351   25.5580   14.6277 H   0  0  0  0  0  0  0  0  0  0  0  0
   25.1879   24.0085   13.2512 H   0  0  0  0  0  0  0  0  0  0  0  0
   25.1379   22.5917   11.2057 H   0  0  0  0  0  0  0  0  0  0  0  0
   27.2466   22.0951    9.9691 H   0  0  0  0  0  0  0  0  0  0  0  0
   29.4077   23.0304   10.7885 H   0  0  0  0  0  0  0  0  0  0  0  0
   29.4578   24.4431   12.8337 H   0  0  0  0  0  0  0  0  0  0  0  0
  2  1  1  0
  3  2  2  0
  4  3  1  0
  5  4  2  0
  6  5  1  0
  7  6  2  0
  7  2  1  0
  8  6  1  0
  9  8  1  0
 10  9  1  0
 11  5  1  0
 11 10  1  0
 12 11  2  0
 13  4  1  0
 14 13  1  0
 15 14  2  0
 16 15  1  0
 17 16  2  0
 18 17  1  0
 19 18  2  0
 19 14  1  0
  1 20  1  0
  1 21  1  0
  8 22  1  0
  8 23  1  0
  9 24  1  0
  9 25  1  0
 10 26  1  0
 10 27  1  0
 13 28  1  0
 15 29  1  0
 16 30  1  0
 17 31  1  0
 18 32  1  0
 19 33  1  0
M  END
$$$$
=
     RDKit          3D

 39 41  0  0  0  0  0  0  0  0999 V2000
   29.2990   26.9920   15.5950 C   0  0  1  0  0  0  0  0  0  0  0  0
   28.8460   27.0570   14.1350 C   0  0  2  0  0  0  0  0  0  0  0  0
   27.8930   27.4370   15.2350 C   0  0  1  0  0  0  0  0  0  0  0  0
   28.6600   25.8630   13.2300 C   0  0  0  0  0  0  0  0  0  0  0  0
   28.0270   25.9970   11.9790 C   0  0  0  0  0  0  0  0  0  0  0  0
   27.8580   24.9060   11.1230 C   0  0  0  0  0  0  0  0  0  0  0  0
   28.3540   23.6660   11.4910 C   0  0  0  0  0  0  0  0  0  0  0  0
   29.0330   23.5050   12.6890 C   0  0  0  0  0  0  0  0  0  0  0  0
   29.1980   24.6000   13.5430 C   0  0  0  0  0  0  0  0  0  0  0  0
   28.1970   22.6190   10.6740 F   0  0  0  0  0  0  0  0  0  0  0  0
   29.5890   25.6300   16.1500 N   0  0  0  0  0  4  0  0  0  0  0  0
   26.6890   26.3230   15.9540 S   0  0  0  0  0  6  0  0  0  0  0  0
   27.4570   25.2530   16.5670 O   0  0  0  0  0  0  0  0  0  0  0  0
   25.8920   27.1890   16.7940 O   0  0  0  0  0  0  0  0  0  0  0  0
   25.7030   25.7050   14.6410 C   0  0  0  0  0  0  0  0  0  0  0  0
   25.6580   24.3310   14.3930 C   0  0  0  0  0  0  0  0  0  0  0  0
   24.8880   23.8510   13.3330 C   0  0  0  0  0  0  0  0  0  0  0  0
   24.1650   24.7360   12.5220 C   0  0  0  0  0  0  0  0  0  0  0  0
   24.1940   26.1080   12.8060 C   0  0  0  0  0  0  0  0  0  0  0  0
   24.9630   26.5970   13.8630 C   0  0  0  0  0  0  0  0  0  0  0  0
   23.3040   24.2100   11.4090 C   0  0  0  0  0  0  0  0  0  0  0  0
   30.8510   28.9160   16.4190 N   0  0  0  0  0  0  0  0  0  0  0  0
   30.1850   28.0440   16.0540 C   0  0  0  0  0  0  0  0  0  0  0  0
   29.2314   27.5428   13.2265 H   0  0  0  0  0  0  0  0  0  0  0  0
   27.2287   28.3110   15.3044 H   0  0  0  0  0  0  0  0  0  0  0  0
   27.6566   26.9851   11.6683 H   0  0  0  0  0  0  0  0  0  0  0  0
   27.3347   25.0307   10.1635 H   0  0  0  0  0  0  0  0  0  0  0  0
   29.4397   22.5213   12.9662 H   0  0  0  0  0  0  0  0  0  0  0  0
   29.7603   24.4719   14.4797 H   0  0  0  0  0  0  0  0  0  0  0  0
   29.5805   25.6697   17.1792 H   0  0  0  0  0  0  0  0  0  0  0  0
   28.8703   24.9671   15.8261 H   0  0  0  0  0  0  0  0  0  0  0  0
   30.5154   25.3174   15.8261 H   0  0  0  0  0  0  0  0  0  0  0  0
   26.2245   23.6337   15.0277 H   0  0  0  0  0  0  0  0  0  0  0  0
   24.8482   22.7702   13.1325 H   0  0  0  0  0  0  0  0  0  0  0  0
   23.6060   26.8051   12.1909 H   0  0  0  0  0  0  0  0  0  0  0  0
   24.9858   27.6750   14.0809 H   0  0  0  0  0  0  0  0  0  0  0  0
   22.4382   23.6810   11.8339 H   0  0  0  0  0  0  0  0  0  0  0  0
   22.9535   25.0483   10.7891 H   0  0  0  0  0  0  0  0  0  0  0  0
   23.8899   23.5155   10.7891 H   0  0  0  0  0  0  0  0  0  0  0  0
  2  1  1  0
  3  2  1  0
  3  1  1  0
  4  2  1  0
  5  4  2  0
  6  5  1  0
  7  6  2  0
  8  7  1  0
  9  8  2  0
  9  4  1  0
 10  7  1  0
 11  1  1  0
 12  3  1  0
 13 12  2  0
 14 12  2  0
 15 12  1  0
 16 15  2  0
 17 16  1  0
 18 17  2  0
 19 18  1  0
 20 19  2  0
 20 15  1  0
 21 18  1  0
  1 23  1  6
 23 22  3  0
  2 24  1  6
  3 25  1  6
  5 26  1  0
  6 27  1  0
  8 28  1  0
  9 29  1  0
 11 30  1  0
 11 31  1  0
 11 32  1  0
 16 33  1  0
 17 34  1  0
 19 35  1  0
 20 36  1  0
 21 37  1  0
 21 38  1  0
 21 39  1  0
M  CHG  1  11   1
M  END
$$$$
=
     RDKit          3D

 32 33  0  0  0  0  0  0  0  0999 V2000
   13.6070   12.7560    3.1640 C   0  0  0  0  0  0  0  0  0  0  0  0
   14.8770   12.5180    2.6480 C   0  0  0  0  0  0  0  0  0  0  0  0
   15.9570   13.3410    2.9950 C   0  0  0  0  0  0  0  0  0  0  0  0
   15.8030   14.4500    3.8440 C   0  0  0  0  0  0  0  0  0  0  0  0
   14.5020   14.7180    4.2910 C   0  0  0  0  0  0  0  0  0  0  0  0
   13.4210   13.8920    3.9460 C   0  0  0  0  0  0  0  0  0  0  0  0
   16.9080   15.2580    4.1470 N   0  0  0  0  0  0  0  0  0  0  0  0
   16.8350   16.1210    5.3510 C   0  0  0  0  0  0  0  0  0  0  0  0
   18.0600   17.0690    5.4220 C   0  0  0  0  0  0  0  0  0  0  0  0
   18.7760   17.0730    4.0820 N   0  0  0  0  0  4  0  0  0  0  0  0
   19.3220   15.6900    3.7500 C   0  0  0  0  0  0  0  0  0  0  0  0
   18.2290   14.6120    3.9590 C   0  0  0  0  0  0  0  0  0  0  0  0
   19.7760   18.1650    3.9290 C   0  0  0  0  0  0  0  0  0  0  0  0
   12.5110   12.0160    2.7180 N   0  0  0  0  0  0  0  0  0  0  0  0
   15.0352   11.6744    1.9600 H   0  0  0  0  0  0  0  0  0  0  0  0
   16.9542   13.1121    2.5910 H   0  0  0  0  0  0  0  0  0  0  0  0
   14.3238   15.5971    4.9277 H   0  0  0  0  0  0  0  0  0  0  0  0
   12.4109   14.1466    4.2993 H   0  0  0  0  0  0  0  0  0  0  0  0
   15.9150   16.7226    5.3086 H   0  0  0  0  0  0  0  0  0  0  0  0
   16.8318   15.4804    6.2452 H   0  0  0  0  0  0  0  0  0  0  0  0
   17.7215   18.0882    5.6598 H   0  0  0  0  0  0  0  0  0  0  0  0
   18.7492   16.7193    6.2048 H   0  0  0  0  0  0  0  0  0  0  0  0
   18.0667   17.2974    3.3697 H   0  0  0  0  0  0  0  0  0  0  0  0
   19.6516   15.6730    2.7007 H   0  0  0  0  0  0  0  0  0  0  0  0
   20.1695   15.4721    4.4166 H   0  0  0  0  0  0  0  0  0  0  0  0
   18.1913   13.9559    3.0769 H   0  0  0  0  0  0  0  0  0  0  0  0
   18.4720   14.0207    4.8541 H   0  0  0  0  0  0  0  0  0  0  0  0
   20.0943   18.5126    4.9229 H   0  0  0  0  0  0  0  0  0  0  0  0
   20.6487   17.7881    3.3755 H   0  0  0  0  0  0  0  0  0  0  0  0
   19.3240   19.0012    3.3755 H   0  0  0  0  0  0  0  0  0  0  0  0
   11.5743   12.1987    3.1053 H   0  0  0  0  0  0  0  0  0  0  0  0
   12.6389   11.2872    2.0015 H   0  0  0  0  0  0  0  0  0  0  0  0
  2  1  2  0
  3  2  1  0
  4  3  2  0
  5  4  1  0
  6  5  2  0
  6  1  1  0
  7  4  1  0
  8  7  1  0
  9  8  1  0
 10  9  1  0
 11 10  1  0
 12 11  1  0
 12  7  1  0
 13 10  1  0
 14  1  1  0
  2 15  1  0
  3 16  1  0
  5 17  1  0
  6 18  1  0
  8 19  1  0
  8 20  1  0
  9 21  1  0
  9 22  1  0
 10 23  1  0
 11 24  1  0
 11 25  1  0
 12 26  1  0
 12 27  1  0
 13 28  1  0
 13 29  1  0
 13 30  1  0
 14 31  1  0
 14 32  1  0
M  CHG  1  10   1
M  END
$$$$
=
     RDKit          3D

 27 27  0  0  0  0  0  0  0  0999 V2000
   17.3420   15.9070    4.0240 C   0  0  2  0  0  0  0  0  0  0  0  0
   16.7360   16.5050    5.3080 C   0  0  0  0  0  0  0  0  0  0  0  0
   15.8990   15.4870    6.0760 C   0  0  0  0  0  0  0  0  0  0  0  0
   14.7600   14.9170    5.2370 C   0  0  0  0  0  0  0  0  0  0  0  0
   15.1380   14.8370    3.7930 N   0  0  0  0  0  4  0  0  0  0  0  0
   16.5980   14.6560    3.5450 C   0  0  0  0  0  0  0  0  0  0  0  0
   18.8400   15.6070    4.1940 C   0  0  0  0  0  0  0  0  0  0  0  0
   19.5620   15.8850    2.9850 O   0  0  0  0  0  0  0  0  0  0  0  0
   19.7230   17.2090    2.6760 C   0  0  0  0  0  0  0  0  0  0  0  0
   19.5770   17.6720    1.5530 O   0  0  0  0  0  0  0  0  0  0  0  0
   21.8740   18.4080    3.7100 Cl  0  0  0  0  0  0  0  0  0  0  0  0
   20.1520   18.0000    3.8830 C   0  0  0  0  0  0  0  0  0  0  0  0
   17.2241   16.6754    3.2457 H   0  0  0  0  0  0  0  0  0  0  0  0
   17.5530   16.8539    5.9566 H   0  0  0  0  0  0  0  0  0  0  0  0
   16.0757   17.3350    5.0161 H   0  0  0  0  0  0  0  0  0  0  0  0
   16.5519   14.6604    6.3929 H   0  0  0  0  0  0  0  0  0  0  0  0
   15.4532   16.0031    6.9390 H   0  0  0  0  0  0  0  0  0  0  0  0
   14.5173   13.9076    5.6005 H   0  0  0  0  0  0  0  0  0  0  0  0
   13.8904   15.5839    5.3324 H   0  0  0  0  0  0  0  0  0  0  0  0
   14.6391   14.0395    3.3735 H   0  0  0  0  0  0  0  0  0  0  0  0
   14.8790   15.7406    3.3718 H   0  0  0  0  0  0  0  0  0  0  0  0
   16.9602   13.7767    4.0979 H   0  0  0  0  0  0  0  0  0  0  0  0
   16.7774   14.5045    2.4704 H   0  0  0  0  0  0  0  0  0  0  0  0
   19.2421   16.2324    5.0047 H   0  0  0  0  0  0  0  0  0  0  0  0
   18.9581   14.5401    4.4346 H   0  0  0  0  0  0  0  0  0  0  0  0
   19.5575   18.9229    3.9519 H   0  0  0  0  0  0  0  0  0  0  0  0
   19.9959   17.4070    4.7962 H   0  0  0  0  0  0  0  0  0  0  0  0
  2  1  1  0
  3  2  1  0
  4  3  1  0
  5  4  1  0
  6  5  1  0
  6  1  1  0
  7  1  1  0
  8  7  1  0
  9  8  1  0
 10  9  2  0
 12  9  1  0
 12 11  1  0
  1 13  1  6
  2 14  1  0
  2 15  1  0
  3 16  1  0
  3 17  1  0
  4 18  1  0
  4 19  1  0
  5 20  1  0
  5 21  1  0
  6 22  1  0
  6 23  1  0
  7 24  1  0
  7 25  1  0
 12 26  1  0
 12 27  1  0
M  CHG  1   5   1
M  END
$$$$
=
     RDKit          3D

 22 22  0  0  0  0  0  0  0  0999 V2000
   16.7710   14.5850    3.8090 C   0  0  0  0  0  0  0  0  0  0  0  0
   15.3950   14.7900    3.9250 C   0  0  0  0  0  0  0  0  0  0  0  0
   14.5290   13.7920    3.5000 C   0  0  0  0  0  0  0  0  0  0  0  0
   13.2080   13.9750    3.6150 F   0  0  0  0  0  0  0  0  0  0  0  0
   15.0120   12.6140    2.9420 C   0  0  0  0  0  0  0  0  0  0  0  0
   16.3900   12.4290    2.8040 C   0  0  0  0  0  0  0  0  0  0  0  0
   17.2900   13.3970    3.2640 C   0  0  0  0  0  0  0  0  0  0  0  0
   18.6540   13.2590    2.9800 N   0  0  0  0  0  0  0  0  0  0  0  0
   17.6310   15.5870    4.1890 O   0  0  0  0  0  0  0  0  0  0  0  0
   17.4960   17.2160    5.9270 C   0  0  0  0  0  0  0  0  0  0  0  0
   17.6780   15.7320    5.6230 C   0  0  2  0  0  0  0  0  0  0  0  0
   18.9790   15.2640    6.1430 C   0  0  0  0  0  0  0  0  0  0  0  0
   19.9950   14.8820    6.5580 N   0  0  0  0  0  0  0  0  0  0  0  0
   15.0033   15.7275    4.3465 H   0  0  0  0  0  0  0  0  0  0  0  0
   14.3131   11.8317    2.6109 H   0  0  0  0  0  0  0  0  0  0  0  0
   16.7714   11.5131    2.3289 H   0  0  0  0  0  0  0  0  0  0  0  0
   19.3238   13.9664    3.3144 H   0  0  0  0  0  0  0  0  0  0  0  0
   18.9876   12.4501    2.4367 H   0  0  0  0  0  0  0  0  0  0  0  0
   17.4774   17.3675    7.0164 H   0  0  0  0  0  0  0  0  0  0  0  0
   18.3311   17.7845    5.4919 H   0  0  0  0  0  0  0  0  0  0  0  0
   16.5482   17.5659    5.4919 H   0  0  0  0  0  0  0  0  0  0  0  0
   16.8903   15.1319    6.1019 H   0  0  0  0  0  0  0  0  0  0  0  0
  2  1  2  0
  3  2  1  0
  4  3  1  0
  5  3  2  0
  6  5  1  0
  7  6  2  0
  7  1  1  0
  8  7  1  0
  9  1  1  0
 11  9  1  0
 11 10  1  0
 12 11  1  0
 13 12  3  0
  2 14  1  0
  5 15  1  0
  6 16  1  0
  8 17  1  0
  8 18  1  0
 10 19  1  0
 10 20  1  0
 10 21  1  0
 11 22  1  1
M  END
$$$$
=
     RDKit          3D

 36 38  0  0  0  0  0  0  0  0999 V2000
    8.5400   12.9420    5.4590 C   0  0  2  0  0  0  0  0  0  0  0  0
    9.8820   13.4270    6.0640 C   0  0  0  0  0  0  0  0  0  0  0  0
   10.3010   13.5480    7.1890 O   0  0  0  0  0  0  0  0  0  0  0  0
   10.3250   13.8170    4.8430 N   0  0  0  0  0  0  0  0  0  0  0  0
    8.9750   13.8240    4.2380 C   0  0  1  0  0  0  0  0  0  0  0  0
    8.8270   13.1840    2.8010 C   0  0  0  0  0  0  0  0  0  0  0  0
    8.0020   13.7710    1.8190 C   0  0  0  0  0  0  0  0  0  0  0  0
    7.8480   13.2080    0.5470 C   0  0  0  0  0  0  0  0  0  0  0  0
    8.5210   12.0390    0.2180 C   0  0  0  0  0  0  0  0  0  0  0  0
    9.3490   11.4340    1.1560 C   0  0  0  0  0  0  0  0  0  0  0  0
    9.4990   12.0010    2.4240 C   0  0  0  0  0  0  0  0  0  0  0  0
    7.4030   13.4520    6.2730 N   0  0  0  0  0  4  0  0  0  0  0  0
   11.3480   14.8130    4.6310 C   0  0  0  0  0  0  0  0  0  0  0  0
   12.6190   14.1620    4.1540 C   0  0  0  0  0  0  0  0  0  0  0  0
   13.8640   14.7350    4.4490 C   0  0  0  0  0  0  0  0  0  0  0  0
   15.0410   14.1470    3.9830 C   0  0  0  0  0  0  0  0  0  0  0  0
   14.9850   12.9870    3.2140 C   0  0  0  0  0  0  0  0  0  0  0  0
   13.7530   12.4150    2.9060 C   0  0  0  0  0  0  0  0  0  0  0  0
   12.5750   13.0000    3.3700 C   0  0  0  0  0  0  0  0  0  0  0  0
    8.2154   11.8998    5.3235 H   0  0  0  0  0  0  0  0  0  0  0  0
    8.4559   14.7564    3.9712 H   0  0  0  0  0  0  0  0  0  0  0  0
    7.4634   14.6993    2.0602 H   0  0  0  0  0  0  0  0  0  0  0  0
    7.1933   13.6920   -0.1927 H   0  0  0  0  0  0  0  0  0  0  0  0
    8.3994   11.5938   -0.7805 H   0  0  0  0  0  0  0  0  0  0  0  0
    9.8862   10.5088    0.9001 H   0  0  0  0  0  0  0  0  0  0  0  0
   10.1618   11.5101    3.1518 H   0  0  0  0  0  0  0  0  0  0  0  0
    7.6253   13.3523    7.2738 H   0  0  0  0  0  0  0  0  0  0  0  0
    7.2426   14.4456    6.0543 H   0  0  0  0  0  0  0  0  0  0  0  0
    6.5543   12.9110    6.0543 H   0  0  0  0  0  0  0  0  0  0  0  0
   11.0026   15.5328    3.8743 H   0  0  0  0  0  0  0  0  0  0  0  0
   11.5457   15.3313    5.5809 H   0  0  0  0  0  0  0  0  0  0  0  0
   13.9136   15.6539    5.0516 H   0  0  0  0  0  0  0  0  0  0  0  0
   16.0140   14.6003    4.2234 H   0  0  0  0  0  0  0  0  0  0  0  0
   15.9135   12.5228    2.8501 H   0  0  0  0  0  0  0  0  0  0  0  0
   13.7090   11.5007    2.2960 H   0  0  0  0  0  0  0  0  0  0  0  0
   11.6046   12.5468    3.1193 H   0  0  0  0  0  0  0  0  0  0  0  0
  2  1  1  0
  3  2  2  0
  4  2  1  0
  5  4  1  0
  5  1  1  0
  6  5  1  0
  7  6  2  0
  8  7  1  0
  9  8  2  0
 10  9  1  0
 11 10  2  0
 11  6  1  0
 12  1  1  0
 13  4  1  0
 14 13  1  0
 15 14  2  0
 16 15  1  0
 17 16  2  0
 18 17  1  0
 19 18  2  0
 19 14  1  0
  1 20  1  6
  5 21  1  6
  7 22  1  0
  8 23  1  0
  9 24  1  0
 10 25  1  0
 11 26  1  0
 12 27  1  0
 12 28  1  0
 12 29  1  0
 13 30  1  0
 13 31  1  0
 15 32  1  0
 16 33  1  0
 17 34  1  0
 18 35  1  0
 19 36  1  0
M  CHG  1  12   1
M  END
$$$$
=
     RDKit          3D

 38 38  0  0  0  0  0  0  0  0999 V2000
   18.1150   15.3490    4.2380 C   0  0  0  0  0  0  0  0  0  0  0  0
   17.4790   15.8000    5.5850 C   0  0  0  0  0  0  0  0  0  0  0  0
   16.0050   16.2020    5.4970 C   0  0  0  0  0  0  0  0  0  0  0  0
   15.1640   15.1130    4.8470 C   0  0  0  0  0  0  0  0  0  0  0  0
   15.7180   14.7210    3.4920 C   0  0  0  0  0  0  0  0  0  0  0  0
   17.1450   14.3090    3.6400 N   0  0  0  0  0  4  0  0  0  0  0  0
   19.4540   14.5860    4.5220 C   0  0  0  0  0  0  0  0  0  0  0  0
   21.7440   15.5400    5.0420 C   0  0  0  0  0  0  0  0  0  0  0  0
   20.4430   15.0000    5.5980 C   0  0  0  0  0  0  0  0  0  0  0  0
   20.2890   14.9310    6.9290 C   0  0  0  0  0  0  0  0  0  0  0  0
   18.2550   16.5360    3.2290 C   0  0  0  0  0  0  0  0  0  0  0  0
   19.3760   17.5670    3.3000 C   0  0  0  0  0  0  0  0  0  0  0  0
   19.7010   18.3910    4.3090 C   0  0  0  0  0  0  0  0  0  0  0  0
   20.1780   17.6520    2.0140 C   0  0  0  0  0  0  0  0  0  0  0  0
   17.5645   14.9678    6.2992 H   0  0  0  0  0  0  0  0  0  0  0  0
   18.0269   16.7005    5.8995 H   0  0  0  0  0  0  0  0  0  0  0  0
   15.6248   16.3882    6.5123 H   0  0  0  0  0  0  0  0  0  0  0  0
   15.9324   17.1080    4.8774 H   0  0  0  0  0  0  0  0  0  0  0  0
   15.1572   14.2281    5.5004 H   0  0  0  0  0  0  0  0  0  0  0  0
   14.1447   15.5013    4.7050 H   0  0  0  0  0  0  0  0  0  0  0  0
   15.1341   13.8820    3.0855 H   0  0  0  0  0  0  0  0  0  0  0  0
   15.6524   15.5786    2.8062 H   0  0  0  0  0  0  0  0  0  0  0  0
   17.1671   13.4777    4.2478 H   0  0  0  0  0  0  0  0  0  0  0  0
   17.4797   14.1524    2.6785 H   0  0  0  0  0  0  0  0  0  0  0  0
   19.1657   13.5516    4.7606 H   0  0  0  0  0  0  0  0  0  0  0  0
   20.0253   14.8081    3.6086 H   0  0  0  0  0  0  0  0  0  0  0  0
   22.4107   15.8167    5.8720 H   0  0  0  0  0  0  0  0  0  0  0  0
   22.2275   14.7682    4.4250 H   0  0  0  0  0  0  0  0  0  0  0  0
   21.5389   16.4273    4.4250 H   0  0  0  0  0  0  0  0  0  0  0  0
   19.3523   14.5421    7.3549 H   0  0  0  0  0  0  0  0  0  0  0  0
   21.0994   15.2633    7.5944 H   0  0  0  0  0  0  0  0  0  0  0  0
   18.3299   16.0772    2.2321 H   0  0  0  0  0  0  0  0  0  0  0  0
   17.3801   17.1486    3.4921 H   0  0  0  0  0  0  0  0  0  0  0  0
   20.5481   19.0845    4.2017 H   0  0  0  0  0  0  0  0  0  0  0  0
   19.1202   18.3726    5.2430 H   0  0  0  0  0  0  0  0  0  0  0  0
   21.2454   17.7651    2.2544 H   0  0  0  0  0  0  0  0  0  0  0  0
   20.0295   16.7331    1.4279 H   0  0  0  0  0  0  0  0  0  0  0  0
   19.8402   18.5194    1.4279 H   0  0  0  0  0  0  0  0  0  0  0  0
  2  1  1  0
  3  2  1  0
  4  3  1  0
  5  4  1  0
  6  5  1  0
  6  1  1  0
  7  1  1  0
  9  8  1  0
  9  7  1  0
 10  9  2  3
 11  1  1  0
 12 11  1  0
 13 12  2  3
 14 12  1  0
  2 15  1  0
  2 16  1  0
  3 17  1  0
  3 18  1  0
  4 19  1  0
  4 20  1  0
  5 21  1  0
  5 22  1  0
  6 23  1  0
  6 24  1  0
  7 25  1  0
  7 26  1  0
  8 27  1  0
  8 28  1  0
  8 29  1  0
 10 30  1  0
 10 31  1  0
 11 32  1  0
 11 33  1  0
 13 34  1  0
 13 35  1  0
 14 36  1  0
 14 37  1  0
 14 38  1  0
M  CHG  1   6   1
M  END
$$$$
=
     RDKit          3D

 28 28  0  0  0  0  0  0  0  0999 V2000
   18.5460   16.8960    4.4830 C   0  0  1  0  0  0  0  0  0  0  0  0
   19.6450   17.9490    4.2660 C   0  0  0  0  0  0  0  0  0  0  0  0
   20.4000   18.3360    5.5360 C   0  0  0  0  0  0  0  0  0  0  0  0
   21.6080   17.4640    5.8630 C   0  0  0  0  0  0  0  0  0  0  0  0
   21.4900   15.9700    5.5790 C   0  0  0  0  0  0  0  0  0  0  0  0
   20.1280   15.3510    5.8900 C   0  0  0  0  0  0  0  0  0  0  0  0
   19.0680   15.4700    4.7840 C   0  0  2  0  0  0  0  0  0  0  0  0
   19.5640   14.8120    3.5320 N   0  0  0  0  0  4  0  0  0  0  0  0
   16.5220   16.3920    5.6770 C   0  0  0  0  0  0  0  0  0  0  0  0
   17.6640   17.2350    5.5580 O   0  0  0  0  0  0  0  0  0  0  0  0
   18.0220   16.8952    3.5158 H   0  0  0  0  0  0  0  0  0  0  0  0
   20.3698   17.5473    3.5426 H   0  0  0  0  0  0  0  0  0  0  0  0
   19.1439   18.8596    3.9060 H   0  0  0  0  0  0  0  0  0  0  0  0
   20.7493   19.3728    5.4220 H   0  0  0  0  0  0  0  0  0  0  0  0
   19.6913   18.2007    6.3664 H   0  0  0  0  0  0  0  0  0  0  0  0
   22.4585   17.8452    5.2787 H   0  0  0  0  0  0  0  0  0  0  0  0
   21.7207   17.5358    6.9549 H   0  0  0  0  0  0  0  0  0  0  0  0
   21.7002   15.8096    4.5113 H   0  0  0  0  0  0  0  0  0  0  0  0
   22.2086   15.4756    6.2492 H   0  0  0  0  0  0  0  0  0  0  0  0
   20.2828   14.2814    6.0946 H   0  0  0  0  0  0  0  0  0  0  0  0
   19.7313   15.9188    6.7446 H   0  0  0  0  0  0  0  0  0  0  0  0
   18.1862   14.9480    5.1838 H   0  0  0  0  0  0  0  0  0  0  0  0
   20.1659   14.0135    3.7791 H   0  0  0  0  0  0  0  0  0  0  0  0
   18.7619   14.4789    2.9783 H   0  0  0  0  0  0  0  0  0  0  0  0
   20.1050   15.4914    2.9783 H   0  0  0  0  0  0  0  0  0  0  0  0
   16.2977   16.2265    6.7411 H   0  0  0  0  0  0  0  0  0  0  0  0
   15.6598   16.8719    5.1909 H   0  0  0  0  0  0  0  0  0  0  0  0
   16.7266   15.4267    5.1909 H   0  0  0  0  0  0  0  0  0  0  0  0
  2  1  1  0
  3  2  1  0
  4  3  1  0
  5  4  1  0
  6  5  1  0
  7  6  1  0
  7  1  1  0
  8  7  1  0
 10  1  1  0
 10  9  1  0
  1 11  1  6
  2 12  1  0
  2 13  1  0
  3 14  1  0
  3 15  1  0
  4 16  1  0
  4 17  1  0
  5 18  1  0
  5 19  1  0
  6 20  1  0
  6 21  1  0
  7 22  1  1
  8 23  1  0
  8 24  1  0
  8 25  1  0
  9 26  1  0
  9 27  1  0
  9 28  1  0
M  CHG  1   8   1
M  END
$$$$
=
     RDKit          3D

 28 29  0  0  0  0  0  0  0  0999 V2000
   19.6440   17.6760    3.3130 C   0  0  0  0  0  0  0  0  0  0  0  0
   18.5740   16.7650    3.9150 C   0  0  2  0  0  0  0  0  0  0  0  0
   18.2520   17.1980    5.3740 C   0  0  0  0  0  0  0  0  0  0  0  0
   17.8620   15.9990    6.1850 N   0  0  0  0  0  4  0  0  0  0  0  0
   18.9790   15.0010    6.3300 C   0  0  0  0  0  0  0  0  0  0  0  0
   19.7780   14.8590    5.0090 C   0  0  0  0  0  0  0  0  0  0  0  0
   19.0340   15.3480    3.8220 N   0  0  0  0  0  0  0  0  0  0  0  0
   17.9880   14.4560    3.5020 C   0  0  0  0  0  0  0  0  0  0  0  0
   18.2660   13.1110    3.2400 C   0  0  0  0  0  0  0  0  0  0  0  0
   17.3080   12.1950    2.9690 N   0  0  0  0  0  0  0  0  0  0  0  0
   16.0450   12.6650    2.9410 C   0  0  0  0  0  0  0  0  0  0  0  0
   15.7520   13.9910    3.2050 C   0  0  0  0  0  0  0  0  0  0  0  0
   16.7060   14.9140    3.5140 N   0  0  0  0  0  0  0  0  0  0  0  0
   20.2116   18.1592    4.1219 H   0  0  0  0  0  0  0  0  0  0  0  0
   20.3274   17.0783    2.6920 H   0  0  0  0  0  0  0  0  0  0  0  0
   19.1629   18.4460    2.6920 H   0  0  0  0  0  0  0  0  0  0  0  0
   17.6344   16.8530    3.3498 H   0  0  0  0  0  0  0  0  0  0  0  0
   19.1411   17.6673    5.8203 H   0  0  0  0  0  0  0  0  0  0  0  0
   17.4192   17.9165    5.3643 H   0  0  0  0  0  0  0  0  0  0  0  0
   17.5798   16.3150    7.1238 H   0  0  0  0  0  0  0  0  0  0  0  0
   17.0903   15.5292    5.6904 H   0  0  0  0  0  0  0  0  0  0  0  0
   19.6592   15.3368    7.1266 H   0  0  0  0  0  0  0  0  0  0  0  0
   18.5423   14.0229    6.5801 H   0  0  0  0  0  0  0  0  0  0  0  0
   20.7099   15.4362    5.1000 H   0  0  0  0  0  0  0  0  0  0  0  0
   19.9702   13.7868    4.8562 H   0  0  0  0  0  0  0  0  0  0  0  0
   19.3154   12.7814    3.2550 H   0  0  0  0  0  0  0  0  0  0  0  0
   15.2233   11.9741    2.7012 H   0  0  0  0  0  0  0  0  0  0  0  0
   14.7016   14.3150    3.1637 H   0  0  0  0  0  0  0  0  0  0  0  0
  2  1  1  0
  3  2  1  0
  4  3  1  0
  5  4  1  0
  6  5  1  0
  7  6  1  0
  7  2  1  0
  8  7  1  0
  9  8  2  0
 10  9  1  0
 11 10  2  0
 12 11  1  0
 13 12  2  0
 13  8  1  0
  1 14  1  0
  1 15  1  0
  1 16  1  0
  2 17  1  6
  3 18  1  0
  3 19  1  0
  4 20  1  0
  4 21  1  0
  5 22  1  0
  5 23  1  0
  6 24  1  0
  6 25  1  0
  9 26  1  0
 11 27  1  0
 12 28  1  0
M  CHG  1   4   1
M  END
$$$$
=
     RDKit          3D

 38 38  0  0  0  0  0  0  0  0999 V2000
   15.8690   16.3790    5.0250 C   0  0  0  0  0  0  0  0  0  0  0  0
   15.6730   15.2430    4.0140 C   0  0  2  0  0  0  0  0  0  0  0  0
   14.4020   14.4500    4.3900 C   0  0  0  0  0  0  0  0  0  0  0  0
   14.3340   13.0380    3.8260 C   0  0  0  0  0  0  0  0  0  0  0  0
   15.1840   12.9480    2.6160 N   0  0  0  0  0  4  0  0  0  0  0  0
   16.6410   13.1420    2.9030 C   0  0  0  0  0  0  0  0  0  0  0  0
   16.9050   14.3160    3.8940 C   0  0  1  0  0  0  0  0  0  0  0  0
   18.1050   15.0560    3.5240 N   0  0  0  0  0  0  0  0  0  0  0  0
   19.1900   15.0950    4.3570 C   0  0  0  0  0  0  0  0  0  0  0  0
   19.3300   14.3440    5.3080 O   0  0  0  0  0  0  0  0  0  0  0  0
   20.0230   16.0680    3.9480 O   0  0  0  0  0  0  0  0  0  0  0  0
   20.4100   17.1450    4.8440 C   0  0  0  0  0  0  0  0  0  0  0  0
   21.3650   16.6440    5.9320 C   0  0  0  0  0  0  0  0  0  0  0  0
   19.1770   17.8380    5.4390 C   0  0  0  0  0  0  0  0  0  0  0  0
   21.1570   18.1480    3.9530 C   0  0  0  0  0  0  0  0  0  0  0  0
   15.7996   15.9768    6.0465 H   0  0  0  0  0  0  0  0  0  0  0  0
   16.8591   16.8349    4.8769 H   0  0  0  0  0  0  0  0  0  0  0  0
   15.0889   17.1403    4.8769 H   0  0  0  0  0  0  0  0  0  0  0  0
   15.5503   15.6922    3.0174 H   0  0  0  0  0  0  0  0  0  0  0  0
   14.3544   14.3819    5.4869 H   0  0  0  0  0  0  0  0  0  0  0  0
   13.5563   14.9980    3.9491 H   0  0  0  0  0  0  0  0  0  0  0  0
   14.6943   12.3238    4.5811 H   0  0  0  0  0  0  0  0  0  0  0  0
   13.2934   12.7985    3.5617 H   0  0  0  0  0  0  0  0  0  0  0  0
   15.0546   12.0176    2.1935 H   0  0  0  0  0  0  0  0  0  0  0  0
   14.8936   13.7051    1.9809 H   0  0  0  0  0  0  0  0  0  0  0  0
   17.0405   12.2151    3.3403 H   0  0  0  0  0  0  0  0  0  0  0  0
   17.1379   13.3892    1.9533 H   0  0  0  0  0  0  0  0  0  0  0  0
   17.0800   13.8820    4.8895 H   0  0  0  0  0  0  0  0  0  0  0  0
   18.1367   15.5560    2.6240 H   0  0  0  0  0  0  0  0  0  0  0  0
   20.9413   16.8663    6.9225 H   0  0  0  0  0  0  0  0  0  0  0  0
   21.5025   15.5577    5.8274 H   0  0  0  0  0  0  0  0  0  0  0  0
   22.3370   17.1483    5.8274 H   0  0  0  0  0  0  0  0  0  0  0  0
   19.2329   17.8066    6.5371 H   0  0  0  0  0  0  0  0  0  0  0  0
   19.1471   18.8851    5.1032 H   0  0  0  0  0  0  0  0  0  0  0  0
   18.2670   17.3192    5.1032 H   0  0  0  0  0  0  0  0  0  0  0  0
   21.6948   18.8701    4.5849 H   0  0  0  0  0  0  0  0  0  0  0  0
   21.8760   17.6097    3.3179 H   0  0  0  0  0  0  0  0  0  0  0  0
   20.4353   18.6827    3.3179 H   0  0  0  0  0  0  0  0  0  0  0  0
  2  1  1  0
  3  2  1  0
  4  3  1  0
  5  4  1  0
  6  5  1  0
  7  2  1  0
  7  6  1  0
  8  7  1  0
  9  8  1  0
 10  9  2  0
 11  9  1  0
 12 11  1  0
 13 12  1  0
 14 12  1  0
 15 12  1  0
  1 16  1  0
  1 17  1  0
  1 18  1  0
  2 19  1  6
  3 20  1  0
  3 21  1  0
  4 22  1  0
  4 23  1  0
  5 24  1  0
  5 25  1  0
  6 26  1  0
  6 27  1  0
  7 28  1  1
  8 29  1  0
 13 30  1  0
 13 31  1  0
 13 32  1  0
 14 33  1  0
 14 34  1  0
 14 35  1  0
 15 36  1  0
 15 37  1  0
 15 38  1  0
M  CHG  1   5   1
M  END
$$$$
=
     RDKit          3D

 33 33  0  0  0  0  0  0  0  0999 V2000
   20.3700   17.2810    5.7180 N   0  0  2  0  0  4  0  0  0  0  0  0
   21.2560   16.1280    6.1500 C   0  0  0  0  0  0  0  0  0  0  0  0
   20.3950   14.9740    6.6360 C   0  0  0  0  0  0  0  0  0  0  0  0
   19.3830   14.5370    5.5790 C   0  0  0  0  0  0  0  0  0  0  0  0
   18.5100   15.7000    5.0580 C   0  0  0  0  0  0  0  0  0  0  0  0
   19.4030   16.8760    4.6150 C   0  0  0  0  0  0  0  0  0  0  0  0
   17.7060   15.2100    3.8390 C   0  0  0  0  0  0  0  0  0  0  0  0
   17.5020   16.1460    6.1360 C   0  0  0  0  0  0  0  0  0  0  0  0
   21.1050   18.5890    5.4660 C   0  0  0  0  0  0  0  0  0  0  0  0
   22.3260   18.4860    4.5130 C   0  0  0  0  0  0  0  0  0  0  0  0
   23.6150   18.8100    5.2000 N   0  0  0  0  0  4  0  0  0  0  0  0
   19.7866   17.5060    6.5365 H   0  0  0  0  0  0  0  0  0  0  0  0
   21.8652   15.7954    5.2966 H   0  0  0  0  0  0  0  0  0  0  0  0
   21.9139   16.4605    6.9665 H   0  0  0  0  0  0  0  0  0  0  0  0
   21.0464   14.1216    6.8792 H   0  0  0  0  0  0  0  0  0  0  0  0
   19.8388   15.3122    7.5227 H   0  0  0  0  0  0  0  0  0  0  0  0
   19.9299   14.1021    4.7295 H   0  0  0  0  0  0  0  0  0  0  0  0
   18.7091   13.8076    6.0521 H   0  0  0  0  0  0  0  0  0  0  0  0
   19.9780   16.5748    3.7269 H   0  0  0  0  0  0  0  0  0  0  0  0
   18.7567   17.7362    4.3863 H   0  0  0  0  0  0  0  0  0  0  0  0
   16.8137   14.6662    4.1828 H   0  0  0  0  0  0  0  0  0  0  0  0
   17.3976   16.0739    3.2318 H   0  0  0  0  0  0  0  0  0  0  0  0
   18.3324   14.5400    3.2318 H   0  0  0  0  0  0  0  0  0  0  0  0
   17.9254   15.9587    7.1338 H   0  0  0  0  0  0  0  0  0  0  0  0
   17.2941   17.2201    6.0216 H   0  0  0  0  0  0  0  0  0  0  0  0
   16.5673   15.5774    6.0216 H   0  0  0  0  0  0  0  0  0  0  0  0
   20.3908   19.3023    5.0287 H   0  0  0  0  0  0  0  0  0  0  0  0
   21.5033   18.9088    6.4402 H   0  0  0  0  0  0  0  0  0  0  0  0
   22.3828   17.4597    4.1213 H   0  0  0  0  0  0  0  0  0  0  0  0
   22.1834   19.2186    3.7050 H   0  0  0  0  0  0  0  0  0  0  0  0
   23.4783   18.7756    6.2203 H   0  0  0  0  0  0  0  0  0  0  0  0
   24.3320   18.1231    4.9263 H   0  0  0  0  0  0  0  0  0  0  0  0
   23.9220   19.7543    4.9263 H   0  0  0  0  0  0  0  0  0  0  0  0
  2  1  1  0
  3  2  1  0
  4  3  1  0
  5  4  1  0
  6  5  1  0
  6  1  1  0
  7  5  1  0
  8  5  1  0
  9  1  1  0
 10  9  1  0
 11 10  1  0
  1 12  1  1
  2 13  1  0
  2 14  1  0
  3 15  1  0
  3 16  1  0
  4 17  1  0
  4 18  1  0
  6 19  1  0
  6 20  1  0
  7 21  1  0
  7 22  1  0
  7 23  1  0
  8 24  1  0
  8 25  1  0
  8 26  1  0
  9 27  1  0
  9 28  1  0
 10 29  1  0
 10 30  1  0
 11 31  1  0
 11 32  1  0
 11 33  1  0
M  CHG  2   1   1  11   1
M  END
$$$$
=
     RDKit          3D

 28 29  0  0  0  0  0  0  0  0999 V2000
   19.7690   16.7300    4.6050 C   0  0  0  0  0  0  0  0  0  0  0  0
   21.0790   16.8940    5.0960 C   0  0  0  0  0  0  0  0  0  0  0  0
   21.5650   16.0850    6.1230 C   0  0  0  0  0  0  0  0  0  0  0  0
   20.7530   15.1040    6.6780 C   0  0  0  0  0  0  0  0  0  0  0  0
   19.4510   14.9310    6.2070 C   0  0  0  0  0  0  0  0  0  0  0  0
   18.9380   15.7320    5.1730 C   0  0  0  0  0  0  0  0  0  0  0  0
   17.5550   15.5110    4.7300 C   0  0  0  0  0  0  0  0  0  0  0  0
   16.4830   16.1900    5.3330 C   0  0  0  0  0  0  0  0  0  0  0  0
   15.1660   15.9590    4.9220 C   0  0  0  0  0  0  0  0  0  0  0  0
   14.9050   15.0510    3.8990 C   0  0  0  0  0  0  0  0  0  0  0  0
   15.9630   14.3930    3.2870 C   0  0  0  0  0  0  0  0  0  0  0  0
   17.2780   14.6170    3.6840 C   0  0  0  0  0  0  0  0  0  0  0  0
   15.7180   13.5140    2.3070 F   0  0  0  0  0  0  0  0  0  0  0  0
   19.2880   17.6500    3.5180 C   0  0  0  0  0  0  0  0  0  0  0  0
   19.7140   17.1950    2.1770 N   0  0  0  0  0  4  0  0  0  0  0  0
   21.7273   17.6704    4.6637 H   0  0  0  0  0  0  0  0  0  0  0  0
   22.5914   16.2238    6.4935 H   0  0  0  0  0  0  0  0  0  0  0  0
   21.1357   14.4648    7.4873 H   0  0  0  0  0  0  0  0  0  0  0  0
   18.8144   14.1530    6.6536 H   0  0  0  0  0  0  0  0  0  0  0  0
   16.6818   16.9123    6.1384 H   0  0  0  0  0  0  0  0  0  0  0  0
   14.3365   16.4946    5.4069 H   0  0  0  0  0  0  0  0  0  0  0  0
   13.8706   14.8571    3.5790 H   0  0  0  0  0  0  0  0  0  0  0  0
   18.1015   14.0926    3.1772 H   0  0  0  0  0  0  0  0  0  0  0  0
   18.1891   17.6895    3.5469 H   0  0  0  0  0  0  0  0  0  0  0  0
   19.7272   18.6429    3.6948 H   0  0  0  0  0  0  0  0  0  0  0  0
   20.4148   16.4465    2.2750 H   0  0  0  0  0  0  0  0  0  0  0  0
   18.8981   16.8360    1.6610 H   0  0  0  0  0  0  0  0  0  0  0  0
   20.1259   17.9856    1.6610 H   0  0  0  0  0  0  0  0  0  0  0  0
  2  1  2  0
  3  2  1  0
  4  3  2  0
  5  4  1  0
  6  5  2  0
  6  1  1  0
  7  6  1  0
  8  7  2  0
  9  8  1  0
 10  9  2  0
 11 10  1  0
 12 11  2  0
 12  7  1  0
 13 11  1  0
 14  1  1  0
 15 14  1  0
  2 16  1  0
  3 17  1  0
  4 18  1  0
  5 19  1  0
  8 20  1  0
  9 21  1  0
 10 22  1  0
 12 23  1  0
 14 24  1  0
 14 25  1  0
 15 26  1  0
 15 27  1  0
 15 28  1  0
M  CHG  1  15   1
M  END
$$$$
=
     RDKit          3D

 51 50  0  0  0  0  0  0  0  0999 V2000
   16.4070   12.7890    2.8430 C   0  0  0  0  0  0  0  0  0  0  0  0
   17.6720   13.3420    3.2110 O   0  0  0  0  0  0  0  0  0  0  0  0
   17.5460   14.6390    3.8040 C   0  0  0  0  0  0  0  0  0  0  0  0
   18.7180   15.5150    3.3550 C   0  0  0  0  0  0  0  0  0  0  0  0
   19.9630   15.0390    3.8770 O   0  0  0  0  0  0  0  0  0  0  0  0
   20.0160   14.9910    5.2970 C   0  0  0  0  0  0  0  0  0  0  0  0
   21.1640   15.7630    5.9530 C   0  0  0  0  0  0  0  0  0  0  0  0
   21.4070   15.7760    7.1520 O   0  0  0  0  0  0  0  0  0  0  0  0
   21.8780   16.4050    4.9860 O   0  0  0  0  0  0  0  0  0  0  0  0
   21.7690   17.8430    4.8140 C   0  0  0  0  0  0  0  0  0  0  0  0
   20.6510   18.4240    5.6860 C   0  0  0  0  0  0  0  0  0  0  0  0
   21.5950   18.2150    3.3370 C   0  0  0  0  0  0  0  0  0  0  0  0
   23.1150   18.3990    5.3060 C   0  0  0  0  0  0  0  0  0  0  0  0
   15.3010   13.7930    3.1830 C   0  0  0  0  0  0  0  0  0  0  0  0
   14.1410   13.2020    3.7950 O   0  0  0  0  0  0  0  0  0  0  0  0
   13.3020   14.1700    4.4490 C   0  0  0  0  0  0  0  0  0  0  0  0
   11.8770   13.6140    4.5100 C   0  0  0  0  0  0  0  0  0  0  0  0
   10.8310   14.5430    4.1770 O   0  0  0  0  0  0  0  0  0  0  0  0
    9.7320   14.0310    3.4160 C   0  0  0  0  0  0  0  0  0  0  0  0
   10.0500   12.6420    2.8690 C   0  0  0  0  0  0  0  0  0  0  0  0
    8.7870   11.8460    2.8850 N   0  0  0  0  0  4  0  0  0  0  0  0
   16.3963   12.5814    1.7628 H   0  0  0  0  0  0  0  0  0  0  0  0
   16.2384   11.8522    3.3944 H   0  0  0  0  0  0  0  0  0  0  0  0
   16.5994   15.0991    3.4842 H   0  0  0  0  0  0  0  0  0  0  0  0
   17.5535   14.5460    4.9000 H   0  0  0  0  0  0  0  0  0  0  0  0
   18.7666   15.5101    2.2561 H   0  0  0  0  0  0  0  0  0  0  0  0
   18.5521   16.5332    3.7368 H   0  0  0  0  0  0  0  0  0  0  0  0
   19.0711   15.4010    5.6830 H   0  0  0  0  0  0  0  0  0  0  0  0
   20.1860   13.9344    5.5515 H   0  0  0  0  0  0  0  0  0  0  0  0
   20.9072   18.2909    6.7474 H   0  0  0  0  0  0  0  0  0  0  0  0
   20.5358   19.4961    5.4683 H   0  0  0  0  0  0  0  0  0  0  0  0
   19.7075   17.9022    5.4683 H   0  0  0  0  0  0  0  0  0  0  0  0
   21.1300   19.2090    3.2616 H   0  0  0  0  0  0  0  0  0  0  0  0
   22.5786   18.2320    2.8448 H   0  0  0  0  0  0  0  0  0  0  0  0
   20.9515   17.4709    2.8448 H   0  0  0  0  0  0  0  0  0  0  0  0
   23.1293   18.4049    6.4059 H   0  0  0  0  0  0  0  0  0  0  0  0
   23.9324   17.7649    4.9321 H   0  0  0  0  0  0  0  0  0  0  0  0
   23.2466   19.4251    4.9321 H   0  0  0  0  0  0  0  0  0  0  0  0
   15.7141   14.5410    3.8757 H   0  0  0  0  0  0  0  0  0  0  0  0
   14.9686   14.2340    2.2317 H   0  0  0  0  0  0  0  0  0  0  0  0
   13.6726   14.3542    5.4682 H   0  0  0  0  0  0  0  0  0  0  0  0
   13.3136   15.1178    3.8908 H   0  0  0  0  0  0  0  0  0  0  0  0
   11.8138   12.7683    3.8094 H   0  0  0  0  0  0  0  0  0  0  0  0
   11.7081   13.3359    5.5608 H   0  0  0  0  0  0  0  0  0  0  0  0
    8.8440   13.9692    4.0622 H   0  0  0  0  0  0  0  0  0  0  0  0
    9.5442   14.7081    2.5696 H   0  0  0  0  0  0  0  0  0  0  0  0
   10.4286   12.7228    1.8394 H   0  0  0  0  0  0  0  0  0  0  0  0
   10.8203   12.1536    3.4839 H   0  0  0  0  0  0  0  0  0  0  0  0
    8.5054   11.6685    3.8597 H   0  0  0  0  0  0  0  0  0  0  0  0
    8.0437   12.3717    2.4032 H   0  0  0  0  0  0  0  0  0  0  0  0
    8.9406   10.9487    2.4032 H   0  0  0  0  0  0  0  0  0  0  0  0
  2  1  1  0
  3  2  1  0
  4  3  1  0
  5  4  1  0
  6  5  1  0
  7  6  1  0
  8  7  2  0
  9  7  1  0
 10  9  1  0
 11 10  1  0
 12 10  1  0
 13 10  1  0
 14  1  1  0
 15 14  1  0
 16 15  1  0
 17 16  1  0
 18 17  1  0
 19 18  1  0
 20 19  1  0
 21 20  1  0
  1 22  1  0
  1 23  1  0
  3 24  1  0
  3 25  1  0
  4 26  1  0
  4 27  1  0
  6 28  1  0
  6 29  1  0
 11 30  1  0
 11 31  1  0
 11 32  1  0
 12 33  1  0
 12 34  1  0
 12 35  1  0
 13 36  1  0
 13 37  1  0
 13 38  1  0
 14 39  1  0
 14 40  1  0
 16 41  1  0
 16 42  1  0
 17 43  1  0
 17 44  1  0
 19 45  1  0
 19 46  1  0
 20 47  1  0
 20 48  1  0
 21 49  1  0
 21 50  1  0
 21 51  1  0
M  CHG  1  21   1
M  END
$$$$
=
     RDKit          3D

 35 36  0  0  0  0  0  0  0  0999 V2000
   18.9290   15.7710    5.5420 C   0  0  1  0  0  0  0  0  0  0  0  0
   18.0210   16.8900    6.0450 N   0  0  0  0  0  4  0  0  0  0  0  0
   16.6180   16.4660    6.3170 C   0  0  0  0  0  0  0  0  0  0  0  0
   15.9890   16.0170    5.0100 C   0  0  0  0  0  0  0  0  0  0  0  0
   16.8170   14.9470    4.3430 C   0  0  0  0  0  0  0  0  0  0  0  0
   18.2040   14.8150    4.5950 C   0  0  0  0  0  0  0  0  0  0  0  0
   18.8780   13.7390    3.9900 C   0  0  0  0  0  0  0  0  0  0  0  0
   18.2240   12.8760    3.1070 C   0  0  0  0  0  0  0  0  0  0  0  0
   16.8780   13.0570    2.8220 C   0  0  0  0  0  0  0  0  0  0  0  0
   16.1750   14.0840    3.4400 C   0  0  0  0  0  0  0  0  0  0  0  0
   20.2160   16.4420    4.9750 C   0  0  2  0  0  0  0  0  0  0  0  0
   22.5140   17.2920    5.9570 C   0  0  0  0  0  0  0  0  0  0  0  0
   21.2760   16.4500    6.0530 C   0  0  0  0  0  0  0  0  0  0  0  0
   21.0950   15.6920    7.0190 O   0  0  0  0  0  0  0  0  0  0  0  0
   19.9170   17.7190    4.2130 C   0  0  0  0  0  0  0  0  0  0  0  0
   19.6370   18.7700    4.7880 O   0  0  0  0  0  0  0  0  0  0  0  0
   19.9170   17.5830    2.6940 C   0  0  0  0  0  0  0  0  0  0  0  0
   21.0720   18.0700    2.1720 F   0  0  0  0  0  0  0  0  0  0  0  0
   18.9220   18.3340    2.1460 F   0  0  0  0  0  0  0  0  0  0  0  0
   19.7580   16.3180    2.2530 F   0  0  0  0  0  0  0  0  0  0  0  0
   19.2327   15.0990    6.3582 H   0  0  0  0  0  0  0  0  0  0  0  0
   18.4207   17.2617    6.9185 H   0  0  0  0  0  0  0  0  0  0  0  0
   17.9762   17.5935    5.2940 H   0  0  0  0  0  0  0  0  0  0  0  0
   16.6146   15.6334    7.0358 H   0  0  0  0  0  0  0  0  0  0  0  0
   16.0464   17.3041    6.7422 H   0  0  0  0  0  0  0  0  0  0  0  0
   14.9846   15.6177    5.2142 H   0  0  0  0  0  0  0  0  0  0  0  0
   15.9331   16.8841    4.3354 H   0  0  0  0  0  0  0  0  0  0  0  0
   19.9416   13.5735    4.2166 H   0  0  0  0  0  0  0  0  0  0  0  0
   18.7779   12.0504    2.6362 H   0  0  0  0  0  0  0  0  0  0  0  0
   16.3697   12.3903    2.1099 H   0  0  0  0  0  0  0  0  0  0  0  0
   15.1061   14.2223    3.2200 H   0  0  0  0  0  0  0  0  0  0  0  0
   20.6704   15.8540    4.1640 H   0  0  0  0  0  0  0  0  0  0  0  0
   22.8714   17.5351    6.9685 H   0  0  0  0  0  0  0  0  0  0  0  0
   23.2942   16.7365    5.4161 H   0  0  0  0  0  0  0  0  0  0  0  0
   22.2840   18.2218    5.4161 H   0  0  0  0  0  0  0  0  0  0  0  0
  2  1  1  0
  3  2  1  0
  4  3  1  0
  5  4  1  0
  6  5  2  0
  6  1  1  0
  7  6  1  0
  8  7  2  0
  9  8  1  0
 10  9  2  0
 10  5  1  0
 11  1  1  0
 13 11  1  0
 13 12  1  0
 14 13  2  0
 15 11  1  0
 16 15  2  0
 17 15  1  0
 18 17  1  0
 19 17  1  0
 20 17  1  0
  1 21  1  1
  2 22  1  0
  2 23  1  0
  3 24  1  0
  3 25  1  0
  4 26  1  0
  4 27  1  0
  7 28  1  0
  8 29  1  0
  9 30  1  0
 10 31  1  0
 11 32  1  6
 12 33  1  0
 12 34  1  0
 12 35  1  0
M  CHG  1   2   1
M  END
$$$$
=
     RDKit          3D

 23 23  0  0  0  0  0  0  0  0999 V2000
   20.0180   16.4290    4.0170 C   0  0  1  0  0  0  0  0  0  0  0  0
   19.1610   17.4660    4.7550 C   0  0  0  0  0  0  0  0  0  0  0  0
   17.8190   16.9070    5.2220 C   0  0  0  0  0  0  0  0  0  0  0  0
   17.8780   15.5880    5.7800 O   0  0  0  0  0  0  0  0  0  0  0  0
   19.2020   15.0950    6.0100 C   0  0  0  0  0  0  0  0  0  0  0  0
   19.8900   15.0190    4.6520 C   0  0  1  0  0  0  0  0  0  0  0  0
   19.0050   14.1910    3.7500 N   0  0  0  0  0  4  0  0  0  0  0  0
   19.7130   17.5370    1.9100 C   0  0  0  0  0  0  0  0  0  0  0  0
   19.6370   16.3030    2.6280 O   0  0  0  0  0  0  0  0  0  0  0  0
   21.0522   16.7949    4.0976 H   0  0  0  0  0  0  0  0  0  0  0  0
   19.7187   17.8196    5.6347 H   0  0  0  0  0  0  0  0  0  0  0  0
   18.9497   18.2816    4.0479 H   0  0  0  0  0  0  0  0  0  0  0  0
   17.4141   17.5847    5.9880 H   0  0  0  0  0  0  0  0  0  0  0  0
   17.1849   16.8358    4.3260 H   0  0  0  0  0  0  0  0  0  0  0  0
   19.7503   15.7797    6.6737 H   0  0  0  0  0  0  0  0  0  0  0  0
   19.1752   14.1070    6.4929 H   0  0  0  0  0  0  0  0  0  0  0  0
   20.8944   14.5871    4.7733 H   0  0  0  0  0  0  0  0  0  0  0  0
   18.3805   13.6067    4.3240 H   0  0  0  0  0  0  0  0  0  0  0  0
   18.4410   14.8150    3.1555 H   0  0  0  0  0  0  0  0  0  0  0  0
   19.5901   13.5868    3.1555 H   0  0  0  0  0  0  0  0  0  0  0  0
   19.7645   18.3733    2.6227 H   0  0  0  0  0  0  0  0  0  0  0  0
   20.6129   17.5383    1.2774 H   0  0  0  0  0  0  0  0  0  0  0  0
   18.8200   17.6488    1.2774 H   0  0  0  0  0  0  0  0  0  0  0  0
  2  1  1  0
  3  2  1  0
  4  3  1  0
  5  4  1  0
  6  5  1  0
  6  1  1  0
  7  6  1  0
  9  8  1  0
  9  1  1  0
  1 10  1  6
  2 11  1  0
  2 12  1  0
  3 13  1  0
  3 14  1  0
  5 15  1  0
  5 16  1  0
  6 17  1  1
  7 18  1  0
  7 19  1  0
  7 20  1  0
  8 21  1  0
  8 22  1  0
  8 23  1  0
M  CHG  1   7   1
M  END
$$$$
=
     RDKit          3D

 35 35  0  0  0  0  0  0  0  0999 V2000
   18.4990   16.2000    5.2530 C   0  0  1  0  0  0  0  0  0  0  0  0
   17.2690   16.4860    6.1220 C   0  0  0  0  0  0  0  0  0  0  0  0
   16.3370   15.3040    6.1470 N   0  0  0  0  0  4  0  0  0  0  0  0
   15.2240   15.3020    5.1390 C   0  0  0  0  0  0  0  0  0  0  0  0
   15.7150   15.4710    3.6880 C   0  0  0  0  0  0  0  0  0  0  0  0
   17.1090   15.0640    3.4980 N   0  0  0  0  0  0  0  0  0  0  0  0
   18.1340   16.0780    3.7730 C   0  0  0  0  0  0  0  0  0  0  0  0
   17.5040   13.7330    3.4350 C   0  0  0  0  0  0  0  0  0  0  0  0
   18.6180   13.3840    3.8200 O   0  0  0  0  0  0  0  0  0  0  0  0
   16.4920   12.7300    2.9470 C   0  0  0  0  0  0  0  0  0  0  0  0
   18.9940   18.4940    5.5780 O   0  0  0  0  0  0  0  0  0  0  0  0
   19.4620   17.3650    5.4180 C   0  0  0  0  0  0  0  0  0  0  0  0
   20.8250   17.1290    5.3370 N   0  0  0  0  0  0  0  0  0  0  0  0
   21.4660   15.8220    5.4480 C   0  0  0  0  0  0  0  0  0  0  0  0
   21.7260   18.2680    5.4830 C   0  0  0  0  0  0  0  0  0  0  0  0
   18.9444   15.2463    5.5724 H   0  0  0  0  0  0  0  0  0  0  0  0
   17.5975   16.7063    7.1484 H   0  0  0  0  0  0  0  0  0  0  0  0
   16.7318   17.3458    5.6953 H   0  0  0  0  0  0  0  0  0  0  0  0
   16.9022   14.4574    5.9897 H   0  0  0  0  0  0  0  0  0  0  0  0
   15.8713   15.3456    7.0647 H   0  0  0  0  0  0  0  0  0  0  0  0
   14.6850   14.3462    5.2160 H   0  0  0  0  0  0  0  0  0  0  0  0
   14.5773   16.1623    5.3663 H   0  0  0  0  0  0  0  0  0  0  0  0
   15.0797   14.8591    3.0307 H   0  0  0  0  0  0  0  0  0  0  0  0
   15.6518   16.5419    3.4449 H   0  0  0  0  0  0  0  0  0  0  0  0
   19.0427   15.8138    3.2122 H   0  0  0  0  0  0  0  0  0  0  0  0
   17.7165   17.0479    3.4647 H   0  0  0  0  0  0  0  0  0  0  0  0
   16.0070   12.2493    3.8093 H   0  0  0  0  0  0  0  0  0  0  0  0
   15.7327   13.2420    2.3376 H   0  0  0  0  0  0  0  0  0  0  0  0
   16.9972   11.9662    2.3376 H   0  0  0  0  0  0  0  0  0  0  0  0
   21.5923   15.5645    6.5100 H   0  0  0  0  0  0  0  0  0  0  0  0
   20.8380   15.0629    4.9588 H   0  0  0  0  0  0  0  0  0  0  0  0
   22.4507   15.8538    4.9588 H   0  0  0  0  0  0  0  0  0  0  0  0
   21.8880   18.4728    6.5516 H   0  0  0  0  0  0  0  0  0  0  0  0
   22.6889   18.0376    5.0037 H   0  0  0  0  0  0  0  0  0  0  0  0
   21.2801   19.1520    5.0037 H   0  0  0  0  0  0  0  0  0  0  0  0
  2  1  1  0
  3  2  1  0
  4  3  1  0
  5  4  1  0
  6  5  1  0
  7  6  1  0
  7  1  1  0
  8  6  1  0
  9  8  2  0
 10  8  1  0
 12  1  1  0
 12 11  2  0
 13 12  1  0
 14 13  1  0
 15 13  1  0
  1 16  1  1
  2 17  1  0
  2 18  1  0
  3 19  1  0
  3 20  1  0
  4 21  1  0
  4 22  1  0
  5 23  1  0
  5 24  1  0
  7 25  1  0
  7 26  1  0
 10 27  1  0
 10 28  1  0
 10 29  1  0
 14 30  1  0
 14 31  1  0
 14 32  1  0
 15 33  1  0
 15 34  1  0
 15 35  1  0
M  CHG  1   3   1
M  END
$$$$
=
     RDKit          3D

 37 39  0  0  0  0  0  0  0  0999 V2000
   18.8750   15.4670    4.9000 N   0  0  0  0  0  0  0  0  0  0  0  0
   19.1710   15.1330    6.3260 C   0  0  0  0  0  0  0  0  0  0  0  0
   20.6960   15.1790    6.6210 C   0  0  0  0  0  0  0  0  0  0  0  0
   21.3340   16.4610    6.1060 N   0  0  0  0  0  4  0  0  0  0  0  0
   20.9970   16.6440    4.6640 C   0  0  1  0  0  0  0  0  0  0  0  0
   19.4690   16.7500    4.4910 C   0  0  1  0  0  0  0  0  0  0  0  0
   19.3980   17.1210    3.0160 C   0  0  0  0  0  0  0  0  0  0  0  0
   20.5840   18.0870    2.8160 C   0  0  0  0  0  0  0  0  0  0  0  0
   21.4920   17.9330    4.0490 C   0  0  0  0  0  0  0  0  0  0  0  0
   15.6470   14.0180    3.6240 C   0  0  0  0  0  0  0  0  0  0  0  0
   14.7500   14.9820    4.0990 C   0  0  0  0  0  0  0  0  0  0  0  0
   15.2190   16.0720    4.8280 C   0  0  0  0  0  0  0  0  0  0  0  0
   16.5850   16.2070    5.0830 C   0  0  0  0  0  0  0  0  0  0  0  0
   17.5110   15.2610    4.6200 C   0  0  0  0  0  0  0  0  0  0  0  0
   17.0230   14.1730    3.8830 C   0  0  0  0  0  0  0  0  0  0  0  0
   15.9260   12.6430    1.7010 F   0  0  0  0  0  0  0  0  0  0  0  0
   15.1630   12.8420    2.8100 C   0  0  0  0  0  0  0  0  0  0  0  0
   13.8810   12.9680    2.3760 F   0  0  0  0  0  0  0  0  0  0  0  0
   15.2130   11.6740    3.5090 F   0  0  0  0  0  0  0  0  0  0  0  0
   18.6599   15.8586    6.9758 H   0  0  0  0  0  0  0  0  0  0  0  0
   18.8142   14.1108    6.5206 H   0  0  0  0  0  0  0  0  0  0  0  0
   20.8501   15.1167    7.7084 H   0  0  0  0  0  0  0  0  0  0  0  0
   21.1693   14.3308    6.1048 H   0  0  0  0  0  0  0  0  0  0  0  0
   20.9770   17.2623    6.6458 H   0  0  0  0  0  0  0  0  0  0  0  0
   22.3566   16.4010    6.2132 H   0  0  0  0  0  0  0  0  0  0  0  0
   21.4717   15.7782    4.1792 H   0  0  0  0  0  0  0  0  0  0  0  0
   18.9049   17.4765    5.0943 H   0  0  0  0  0  0  0  0  0  0  0  0
   19.5096   16.2286    2.3827 H   0  0  0  0  0  0  0  0  0  0  0  0
   18.4337   17.5719    2.7391 H   0  0  0  0  0  0  0  0  0  0  0  0
   21.1373   17.8240    1.9024 H   0  0  0  0  0  0  0  0  0  0  0  0
   20.2355   19.1247    2.7082 H   0  0  0  0  0  0  0  0  0  0  0  0
   22.5492   17.8529    3.7561 H   0  0  0  0  0  0  0  0  0  0  0  0
   21.4466   18.7911    4.7357 H   0  0  0  0  0  0  0  0  0  0  0  0
   13.6738   14.8785    3.8963 H   0  0  0  0  0  0  0  0  0  0  0  0
   14.5126   16.8272    5.2032 H   0  0  0  0  0  0  0  0  0  0  0  0
   16.9423   17.0733    5.6590 H   0  0  0  0  0  0  0  0  0  0  0  0
   17.7303   13.4235    3.4983 H   0  0  0  0  0  0  0  0  0  0  0  0
  2  1  1  0
  3  2  1  0
  4  3  1  0
  5  4  1  0
  6  1  1  0
  6  5  1  0
  7  6  1  0
  8  7  1  0
  9  8  1  0
  9  5  1  0
 11 10  2  0
 12 11  1  0
 13 12  2  0
 14 13  1  0
 14  1  1  0
 15 10  1  0
 15 14  2  0
 17 16  1  0
 17 10  1  0
 18 17  1  0
 19 17  1  0
  2 20  1  0
  2 21  1  0
  3 22  1  0
  3 23  1  0
  4 24  1  0
  4 25  1  0
  5 26  1  6
  6 27  1  1
  7 28  1  0
  7 29  1  0
  8 30  1  0
  8 31  1  0
  9 32  1  0
  9 33  1  0
 11 34  1  0
 12 35  1  0
 13 36  1  0
 15 37  1  0
M  CHG  1   4   1
M  END
$$$$
=
     RDKit          3D

 15 15  0  0  0  0  0  0  0  0999 V2000
   22.5140   18.0680    5.0770 C   0  0  0  0  0  0  0  0  0  0  0  0
   21.7410   18.4540    3.9860 C   0  0  0  0  0  0  0  0  0  0  0  0
   20.6320   17.6950    3.6020 C   0  0  0  0  0  0  0  0  0  0  0  0
   20.3350   16.5240    4.3040 C   0  0  0  0  0  0  0  0  0  0  0  0
   21.1090   16.0960    5.3420 N   0  0  0  0  0  0  0  0  0  0  0  0
   22.1780   16.8570    5.6780 C   0  0  0  0  0  0  0  0  0  0  0  0
   23.6940   18.7470    5.3880 N   0  0  0  0  0  0  0  0  0  0  0  0
   19.1390   15.7550    3.8600 N   0  0  0  0  0  4  0  0  0  0  0  0
   18.0190   16.2660    4.0240 O   0  0  0  0  0  0  0  0  0  0  0  0
   19.3320   14.6410    3.3520 O   0  0  0  0  0  1  0  0  0  0  0  0
   22.0043   19.3615    3.4228 H   0  0  0  0  0  0  0  0  0  0  0  0
   20.0019   18.0150    2.7590 H   0  0  0  0  0  0  0  0  0  0  0  0
   22.8293   16.4915    6.4856 H   0  0  0  0  0  0  0  0  0  0  0  0
   24.2590   18.4535    6.1976 H   0  0  0  0  0  0  0  0  0  0  0  0
   23.9993   19.5414    4.8078 H   0  0  0  0  0  0  0  0  0  0  0  0
  2  1  2  0
  3  2  1  0
  4  3  2  0
  5  4  1  0
  6  5  2  0
  6  1  1  0
  7  1  1  0
  8  4  1  0
  9  8  2  0
 10  8  1  0
  2 11  1  0
  3 12  1  0
  6 13  1  0
  7 14  1  0
  7 15  1  0
M  CHG  2   8   1  10  -1
M  END
$$$$
=
     RDKit          3D

 27 28  0  0  0  0  0  0  0  0999 V2000
   16.9650   15.8440    4.7300 C   0  0  0  0  0  0  0  0  0  0  0  0
   18.2990   15.4920    4.5210 C   0  0  0  0  0  0  0  0  0  0  0  0
   18.6170   14.3050    3.8550 C   0  0  0  0  0  0  0  0  0  0  0  0
   17.6150   13.4420    3.3830 C   0  0  0  0  0  0  0  0  0  0  0  0
   16.2680   13.7980    3.5950 C   0  0  0  0  0  0  0  0  0  0  0  0
   15.9430   14.9870    4.2750 C   0  0  0  0  0  0  0  0  0  0  0  0
   14.5950   15.3710    4.4290 N   0  0  0  0  0  0  0  0  0  0  0  0
   13.5440   14.5570    4.1150 C   0  0  0  0  0  0  0  0  0  0  0  0
   13.7490   13.3880    3.4890 C   0  0  0  0  0  0  0  0  0  0  0  0
   15.1230   12.9510    3.1420 C   0  0  0  0  0  0  0  0  0  0  0  0
   15.2670   11.9120    2.5080 O   0  0  0  0  0  0  0  0  0  0  0  0
   18.0270   12.1820    2.6720 C   0  0  0  0  0  0  0  0  0  0  0  0
   12.2760   14.9750    4.4420 N   0  0  0  0  0  0  0  0  0  0  0  0
   17.5230   17.7480    6.0520 C   0  0  0  0  0  0  0  0  0  0  0  0
   16.5390   16.9820    5.3690 O   0  0  0  0  0  0  0  0  0  0  0  0
   19.1028   16.1507    4.8815 H   0  0  0  0  0  0  0  0  0  0  0  0
   19.6733   14.0417    3.6975 H   0  0  0  0  0  0  0  0  0  0  0  0
   14.3929   16.3118    4.7964 H   0  0  0  0  0  0  0  0  0  0  0  0
   12.8915   12.7490    3.2313 H   0  0  0  0  0  0  0  0  0  0  0  0
   18.2798   11.4090    3.4126 H   0  0  0  0  0  0  0  0  0  0  0  0
   17.1976   11.8287    2.0417 H   0  0  0  0  0  0  0  0  0  0  0  0
   18.9049   12.3870    2.0417 H   0  0  0  0  0  0  0  0  0  0  0  0
   11.4643   14.3820    4.2175 H   0  0  0  0  0  0  0  0  0  0  0  0
   12.1375   15.8812    4.9116 H   0  0  0  0  0  0  0  0  0  0  0  0
   17.3836   17.6395    7.1377 H   0  0  0  0  0  0  0  0  0  0  0  0
   18.5250   17.3898    5.7733 H   0  0  0  0  0  0  0  0  0  0  0  0
   17.4216   18.8073    5.7733 H   0  0  0  0  0  0  0  0  0  0  0  0
  2  1  2  0
  3  2  1  0
  4  3  2  0
  5  4  1  0
  6  5  2  0
  6  1  1  0
  7  6  1  0
  8  7  1  0
  9  8  2  0
 10  9  1  0
 10  5  1  0
 11 10  2  0
 12  4  1  0
 13  8  1  0
 15  1  1  0
 15 14  1  0
  2 16  1  0
  3 17  1  0
  7 18  1  0
  9 19  1  0
 12 20  1  0
 12 21  1  0
 12 22  1  0
 13 23  1  0
 13 24  1  0
 14 25  1  0
 14 26  1  0
 14 27  1  0
M  END
$$$$
=
     RDKit          3D

 47 49  0  0  0  0  0  0  0  0999 V2000
   16.2610   13.9290    3.8310 C   0  0  0  0  0  0  0  0  0  0  0  0
   17.0410   12.9720    3.2160 C   0  0  0  0  0  0  0  0  0  0  0  0
   18.3240   13.3520    2.9120 C   0  0  0  0  0  0  0  0  0  0  0  0
   18.8200   14.5670    3.1910 N   0  0  0  0  0  0  0  0  0  0  0  0
   18.0170   15.4340    3.8220 C   0  0  0  0  0  0  0  0  0  0  0  0
   16.7340   15.1610    4.1310 N   0  0  0  0  0  0  0  0  0  0  0  0
   18.4440   16.7250    4.1270 N   0  0  0  0  0  0  0  0  0  0  0  0
   10.6800   13.5510    3.2060 C   0  0  0  0  0  0  0  0  0  0  0  0
    9.9620   14.5460    3.3520 O   0  0  0  0  0  0  0  0  0  0  0  0
   11.9800   13.4670    3.6670 N   0  0  0  0  0  0  0  0  0  0  0  0
   12.7840   12.2420    3.6760 C   0  0  0  0  0  0  0  0  0  0  0  0
   14.2410   12.5170    3.3240 C   0  0  0  0  0  0  0  0  0  0  0  0
   14.8290   13.6230    4.2150 C   0  0  0  0  0  0  0  0  0  0  0  0
   13.9590   14.8840    4.1270 C   0  0  0  0  0  0  0  0  0  0  0  0
   12.5070   14.5740    4.4730 C   0  0  0  0  0  0  0  0  0  0  0  0
   10.0890   12.3690    2.4290 C   0  0  0  0  0  0  0  0  0  0  0  0
    7.5970   11.9940    2.2330 C   0  0  0  0  0  0  0  0  0  0  0  0
    8.8060   11.9050    3.0890 N   0  0  0  0  0  4  0  0  0  0  0  0
   19.7110   17.0830    4.6210 C   0  0  0  0  0  0  0  0  0  0  0  0
   20.4120   18.0830    3.9440 C   0  0  0  0  0  0  0  0  0  0  0  0
   21.6690   18.4780    4.4000 C   0  0  0  0  0  0  0  0  0  0  0  0
   22.2010   17.8670    5.5240 C   0  0  0  0  0  0  0  0  0  0  0  0
   21.4480   16.8880    6.1450 C   0  0  0  0  0  0  0  0  0  0  0  0
   20.2250   16.4980    5.7230 N   0  0  0  0  0  0  0  0  0  0  0  0
   16.6585   11.9671    2.9838 H   0  0  0  0  0  0  0  0  0  0  0  0
   18.9798   12.6228    2.4138 H   0  0  0  0  0  0  0  0  0  0  0  0
   17.7687   17.4880    3.9766 H   0  0  0  0  0  0  0  0  0  0  0  0
   12.7389   11.7942    4.6797 H   0  0  0  0  0  0  0  0  0  0  0  0
   12.3730   11.5585    2.9184 H   0  0  0  0  0  0  0  0  0  0  0  0
   14.8243   11.5950    3.4646 H   0  0  0  0  0  0  0  0  0  0  0  0
   14.2893   12.8507    2.2770 H   0  0  0  0  0  0  0  0  0  0  0  0
   14.8331   13.2673    5.2559 H   0  0  0  0  0  0  0  0  0  0  0  0
   14.3437   15.6358    4.8318 H   0  0  0  0  0  0  0  0  0  0  0  0
   13.9989   15.2648    3.0958 H   0  0  0  0  0  0  0  0  0  0  0  0
   12.4447   14.3012    5.5368 H   0  0  0  0  0  0  0  0  0  0  0  0
   11.9054   15.4698    4.2591 H   0  0  0  0  0  0  0  0  0  0  0  0
    9.8750   12.6822    1.3965 H   0  0  0  0  0  0  0  0  0  0  0  0
   10.8132   11.5410    2.4250 H   0  0  0  0  0  0  0  0  0  0  0  0
    6.7017   12.0599    2.8687 H   0  0  0  0  0  0  0  0  0  0  0  0
    7.6625   12.8898    1.5979 H   0  0  0  0  0  0  0  0  0  0  0  0
    7.5306   11.0983    1.5979 H   0  0  0  0  0  0  0  0  0  0  0  0
    8.6490   12.4841    3.9262 H   0  0  0  0  0  0  0  0  0  0  0  0
    8.9358   10.9060    3.3037 H   0  0  0  0  0  0  0  0  0  0  0  0
   19.9739   18.5577    3.0537 H   0  0  0  0  0  0  0  0  0  0  0  0
   22.2308   19.2642    3.8744 H   0  0  0  0  0  0  0  0  0  0  0  0
   23.1909   18.1518    5.9099 H   0  0  0  0  0  0  0  0  0  0  0  0
   21.8692   16.3976    7.0350 H   0  0  0  0  0  0  0  0  0  0  0  0
  2  1  2  0
  3  2  1  0
  4  3  2  0
  5  4  1  0
  6  1  1  0
  6  5  2  0
  7  5  1  0
  9  8  2  0
 10  8  1  0
 11 10  1  0
 12 11  1  0
 13 12  1  0
 13  1  1  0
 14 13  1  0
 15 14  1  0
 15 10  1  0
 16  8  1  0
 18 17  1  0
 18 16  1  0
 19  7  1  0
 20 19  2  0
 21 20  1  0
 22 21  2  0
 23 22  1  0
 24 19  1  0
 24 23  2  0
  2 25  1  0
  3 26  1  0
  7 27  1  0
 11 28  1  0
 11 29  1  0
 12 30  1  0
 12 31  1  0
 13 32  1  0
 14 33  1  0
 14 34  1  0
 15 35  1  0
 15 36  1  0
 16 37  1  0
 16 38  1  0
 17 39  1  0
 17 40  1  0
 17 41  1  0
 18 42  1  0
 18 43  1  0
 20 44  1  0
 21 45  1  0
 22 46  1  0
 23 47  1  0
M  CHG  1  18   1
M  END
$$$$
=
     RDKit          3D

 53 55  0  0  0  0  0  0  0  0999 V2000
   17.8880   13.6450    3.1450 C   0  0  2  0  0  0  0  0  0  0  0  0
   20.3750   16.5020    5.2950 C   0  0  0  0  0  0  0  0  0  0  0  0
   19.9770   15.2950    5.8830 C   0  0  0  0  0  0  0  0  0  0  0  0
   19.1880   14.3720    5.1840 C   0  0  0  0  0  0  0  0  0  0  0  0
   18.7690   14.6340    3.8740 C   0  0  0  0  0  0  0  0  0  0  0  0
   19.1860   15.8380    3.2830 C   0  0  0  0  0  0  0  0  0  0  0  0
   19.9840   16.7670    3.9740 C   0  0  0  0  0  0  0  0  0  0  0  0
   20.2530   17.8720    3.2090 O   0  0  0  0  0  0  0  0  0  0  0  0
   20.1620   17.7500    1.7950 C   0  0  0  0  0  0  0  0  0  0  0  0
   21.1030   17.4530    5.9540 O   0  0  0  0  0  0  0  0  0  0  0  0
   23.1360   18.3880    5.1420 C   0  0  0  0  0  0  0  0  0  0  0  0
   22.5210   17.3130    6.0190 C   0  0  0  0  0  0  0  0  0  0  0  0
   16.4710   13.9690    3.5300 C   0  0  0  0  0  0  0  0  0  0  0  0
   16.1930   14.9250    4.4330 N   0  0  0  0  0  0  0  0  0  0  0  0
   14.8420   14.8630    4.4680 N   0  0  0  0  0  0  0  0  0  0  0  0
   14.3560   13.8520    3.6770 C   0  0  0  0  0  0  0  0  0  0  0  0
   15.3870   13.2650    3.0910 N   0  0  0  0  0  0  0  0  0  0  0  0
   12.9410   13.5040    3.5160 C   0  0  0  0  0  0  0  0  0  0  0  0
   12.4990   12.5720    2.5690 C   0  0  0  0  0  0  0  0  0  0  0  0
   11.1380   12.2700    2.4450 C   0  0  0  0  0  0  0  0  0  0  0  0
   10.1940   12.8940    3.2640 C   0  0  0  0  0  0  0  0  0  0  0  0
   10.6230   13.8330    4.2200 C   0  0  0  0  0  0  0  0  0  0  0  0
   11.9880   14.1300    4.3350 C   0  0  0  0  0  0  0  0  0  0  0  0
    9.6380   14.4040    4.9860 O   0  0  0  0  0  0  0  0  0  0  0  0
    9.5600   14.0410    6.3560 C   0  0  0  0  0  0  0  0  0  0  0  0
    8.8430   12.6600    3.2120 O   0  0  0  0  0  0  0  0  0  0  0  0
    8.1480   13.0310    2.0310 C   0  0  0  0  0  0  0  0  0  0  0  0
   18.2270   12.2330    3.4900 N   0  0  0  0  0  4  0  0  0  0  0  0
   18.0365   13.7306    2.0584 H   0  0  0  0  0  0  0  0  0  0  0  0
   20.2896   15.0673    6.9128 H   0  0  0  0  0  0  0  0  0  0  0  0
   18.8942   13.4301    5.6703 H   0  0  0  0  0  0  0  0  0  0  0  0
   18.8796   16.0605    2.2502 H   0  0  0  0  0  0  0  0  0  0  0  0
   19.5220   16.8920    1.5414 H   0  0  0  0  0  0  0  0  0  0  0  0
   19.7269   18.6688    1.3749 H   0  0  0  0  0  0  0  0  0  0  0  0
   21.1667   17.5948    1.3749 H   0  0  0  0  0  0  0  0  0  0  0  0
   23.5822   19.1680    5.7765 H   0  0  0  0  0  0  0  0  0  0  0  0
   23.9154   17.9416    4.5069 H   0  0  0  0  0  0  0  0  0  0  0  0
   22.3562   18.8336    4.5069 H   0  0  0  0  0  0  0  0  0  0  0  0
   22.8617   17.4375    7.0575 H   0  0  0  0  0  0  0  0  0  0  0  0
   22.8240   16.3145    5.6710 H   0  0  0  0  0  0  0  0  0  0  0  0
   14.2494   15.4980    5.0216 H   0  0  0  0  0  0  0  0  0  0  0  0
   13.2291   12.0719    1.9157 H   0  0  0  0  0  0  0  0  0  0  0  0
   10.8088   11.5348    1.6960 H   0  0  0  0  0  0  0  0  0  0  0  0
   12.3188   14.8675    5.0811 H   0  0  0  0  0  0  0  0  0  0  0  0
    9.7501   14.9259    6.9812 H   0  0  0  0  0  0  0  0  0  0  0  0
    8.5566   13.6466    6.5743 H   0  0  0  0  0  0  0  0  0  0  0  0
   10.3128   13.2692    6.5743 H   0  0  0  0  0  0  0  0  0  0  0  0
    7.2074   13.5331    2.3015 H   0  0  0  0  0  0  0  0  0  0  0  0
    8.7720   13.7160    1.4382 H   0  0  0  0  0  0  0  0  0  0  0  0
    7.9261   12.1314    1.4382 H   0  0  0  0  0  0  0  0  0  0  0  0
   18.2526   12.1265    4.5142 H   0  0  0  0  0  0  0  0  0  0  0  0
   17.5134   11.6027    3.0970 H   0  0  0  0  0  0  0  0  0  0  0  0
   19.1489   11.9954    3.0970 H   0  0  0  0  0  0  0  0  0  0  0  0
  3  2  2  0
  4  3  1  0
  5  4  2  0
  5  1  1  0
  6  5  1  0
  7  6  2  0
  7  2  1  0
  8  7  1  0
  9  8  1  0
 10  2  1  0
 12 10  1  0
 12 11  1  0
 13  1  1  0
 14 13  2  0
 15 14  1  0
 16 15  1  0
 17 16  2  0
 17 13  1  0
 18 16  1  0
 19 18  2  0
 20 19  1  0
 21 20  2  0
 22 21  1  0
 23 22  2  0
 23 18  1  0
 24 22  1  0
 25 24  1  0
 26 21  1  0
 27 26  1  0
 28  1  1  0
  1 29  1  6
  3 30  1  0
  4 31  1  0
  6 32  1  0
  9 33  1  0
  9 34  1  0
  9 35  1  0
 11 36  1  0
 11 37  1  0
 11 38  1  0
 12 39  1  0
 12 40  1  0
 15 41  1  0
 19 42  1  0
 20 43  1  0
 23 44  1  0
 25 45  1  0
 25 46  1  0
 25 47  1  0
 27 48  1  0
 27 49  1  0
 27 50  1  0
 28 51  1  0
 28 52  1  0
 28 53  1  0
M  CHG  1  28   1
M  END
$$$$
=
     RDKit          3D

 27 27  0  0  0  0  0  0  0  0999 V2000
   15.6300   15.4590    4.6340 C   0  0  1  0  0  0  0  0  0  0  0  0
   16.1220   15.7380    6.0700 C   0  0  0  0  0  0  0  0  0  0  0  0
   17.6340   15.9700    6.1760 C   0  0  0  0  0  0  0  0  0  0  0  0
   18.2160   16.5790    4.9060 C   0  0  0  0  0  0  0  0  0  0  0  0
   17.9950   15.6760    3.6880 C   0  0  2  0  0  0  0  0  0  0  0  0
   16.7470   14.7770    3.8160 C   0  0  0  0  0  0  0  0  0  0  0  0
   19.1950   14.8160    3.4850 N   0  0  0  0  0  4  0  0  0  0  0  0
   14.3300   14.6310    4.6160 C   0  0  0  0  0  0  0  0  0  0  0  0
   14.4590   13.4410    3.7400 N   0  0  0  0  0  4  0  0  0  0  0  0
   15.3893   16.4240    4.1641 H   0  0  0  0  0  0  0  0  0  0  0  0
   15.6071   16.6352    6.4441 H   0  0  0  0  0  0  0  0  0  0  0  0
   15.8947   14.8410    6.6647 H   0  0  0  0  0  0  0  0  0  0  0  0
   17.8292   16.6518    7.0169 H   0  0  0  0  0  0  0  0  0  0  0  0
   18.1144   14.9927    6.3314 H   0  0  0  0  0  0  0  0  0  0  0  0
   17.7316   17.5494    4.7222 H   0  0  0  0  0  0  0  0  0  0  0  0
   19.2999   16.6988    5.0503 H   0  0  0  0  0  0  0  0  0  0  0  0
   17.8312   16.3390    2.8257 H   0  0  0  0  0  0  0  0  0  0  0  0
   17.0331   13.8400    4.3163 H   0  0  0  0  0  0  0  0  0  0  0  0
   16.3602   14.5835    2.8046 H   0  0  0  0  0  0  0  0  0  0  0  0
   19.5790   14.5408    4.4003 H   0  0  0  0  0  0  0  0  0  0  0  0
   18.9278   13.9728    2.9572 H   0  0  0  0  0  0  0  0  0  0  0  0
   19.9076   15.3400    2.9572 H   0  0  0  0  0  0  0  0  0  0  0  0
   14.1028   14.2989    5.6398 H   0  0  0  0  0  0  0  0  0  0  0  0
   13.5212   15.2645    4.2229 H   0  0  0  0  0  0  0  0  0  0  0  0
   14.5507   12.5954    4.3209 H   0  0  0  0  0  0  0  0  0  0  0  0
   13.6219   13.3600    3.1454 H   0  0  0  0  0  0  0  0  0  0  0  0
   15.2940   13.5413    3.1454 H   0  0  0  0  0  0  0  0  0  0  0  0
  2  1  1  0
  3  2  1  0
  4  3  1  0
  5  4  1  0
  6  1  1  0
  6  5  1  0
  7  5  1  0
  8  1  1  0
  9  8  1  0
  1 10  1  6
  2 11  1  0
  2 12  1  0
  3 13  1  0
  3 14  1  0
  4 15  1  0
  4 16  1  0
  5 17  1  6
  6 18  1  0
  6 19  1  0
  7 20  1  0
  7 21  1  0
  7 22  1  0
  8 23  1  0
  8 24  1  0
  9 25  1  0
  9 26  1  0
  9 27  1  0
M  CHG  2   7   1   9   1
M  END
$$$$
=
     RDKit          3D

 40 41  0  0  0  0  0  0  0  0999 V2000
   20.0340   15.8290    5.0390 C   0  0  1  0  0  0  0  0  0  0  0  0
   19.7680   17.3100    5.3230 C   0  0  0  0  0  0  0  0  0  0  0  0
   20.3980   18.2410    4.2930 C   0  0  0  0  0  0  0  0  0  0  0  0
   20.2920   17.7020    2.8720 C   0  0  0  0  0  0  0  0  0  0  0  0
   19.1800   16.6780    2.7340 C   0  0  0  0  0  0  0  0  0  0  0  0
   19.4950   15.4580    3.6230 N   0  0  2  0  0  4  0  0  0  0  0  0
   21.5500   15.4770    5.2080 C   0  0  0  0  0  0  0  0  0  0  0  0
   22.1520   16.0380    6.4600 N   0  0  0  0  0  4  0  0  0  0  0  0
   18.2630   14.5380    3.7270 C   0  0  0  0  0  0  0  0  0  0  0  0
   16.9650   15.3240    3.9440 C   0  0  0  0  0  0  0  0  0  0  0  0
   15.7660   14.4520    3.6790 C   0  0  0  0  0  0  0  0  0  0  0  0
   15.8840   13.3010    2.8830 C   0  0  0  0  0  0  0  0  0  0  0  0
   14.7760   12.4810    2.6620 C   0  0  0  0  0  0  0  0  0  0  0  0
   13.5520   12.8100    3.2320 C   0  0  0  0  0  0  0  0  0  0  0  0
   13.4130   13.9480    4.0140 C   0  0  0  0  0  0  0  0  0  0  0  0
   14.5170   14.7720    4.2380 C   0  0  0  0  0  0  0  0  0  0  0  0
   12.4940   12.0180    3.0220 F   0  0  0  0  0  0  0  0  0  0  0  0
   19.4929   15.2212    5.7791 H   0  0  0  0  0  0  0  0  0  0  0  0
   18.6806   17.4758    5.3254 H   0  0  0  0  0  0  0  0  0  0  0  0
   20.2234   17.5433    6.2967 H   0  0  0  0  0  0  0  0  0  0  0  0
   19.8876   19.2143    4.3394 H   0  0  0  0  0  0  0  0  0  0  0  0
   21.4671   18.3309    4.5358 H   0  0  0  0  0  0  0  0  0  0  0  0
   20.0901   18.5399    2.1885 H   0  0  0  0  0  0  0  0  0  0  0  0
   21.2426   17.2069    2.6245 H   0  0  0  0  0  0  0  0  0  0  0  0
   18.2267   17.1264    3.0503 H   0  0  0  0  0  0  0  0  0  0  0  0
   19.1029   16.3581    1.6844 H   0  0  0  0  0  0  0  0  0  0  0  0
   20.2632   14.9538    3.1576 H   0  0  0  0  0  0  0  0  0  0  0  0
   21.6539   14.3822    5.2307 H   0  0  0  0  0  0  0  0  0  0  0  0
   22.0857   15.9264    4.3588 H   0  0  0  0  0  0  0  0  0  0  0  0
   21.6963   15.6133    7.2803 H   0  0  0  0  0  0  0  0  0  0  0  0
   23.1601   15.8279    6.4802 H   0  0  0  0  0  0  0  0  0  0  0  0
   22.0134   17.0584    6.4802 H   0  0  0  0  0  0  0  0  0  0  0  0
   18.1743   13.9593    2.7957 H   0  0  0  0  0  0  0  0  0  0  0  0
   18.4071   13.8806    4.5971 H   0  0  0  0  0  0  0  0  0  0  0  0
   16.9288   15.6821    4.9835 H   0  0  0  0  0  0  0  0  0  0  0  0
   16.9453   16.1749    3.2472 H   0  0  0  0  0  0  0  0  0  0  0  0
   16.8538   13.0445    2.4317 H   0  0  0  0  0  0  0  0  0  0  0  0
   14.8713   11.5789    2.0398 H   0  0  0  0  0  0  0  0  0  0  0  0
   12.4373   14.1994    4.4553 H   0  0  0  0  0  0  0  0  0  0  0  0
   14.4089   15.6762    4.8550 H   0  0  0  0  0  0  0  0  0  0  0  0
  2  1  1  0
  3  2  1  0
  4  3  1  0
  5  4  1  0
  6  1  1  0
  6  5  1  0
  7  1  1  0
  8  7  1  0
  9  6  1  0
 10  9  1  0
 11 10  1  0
 12 11  2  0
 13 12  1  0
 14 13  2  0
 15 14  1  0
 16 15  2  0
 16 11  1  0
 17 14  1  0
  1 18  1  1
  2 19  1  0
  2 20  1  0
  3 21  1  0
  3 22  1  0
  4 23  1  0
  4 24  1  0
  5 25  1  0
  5 26  1  0
  6 27  1  6
  7 28  1  0
  7 29  1  0
  8 30  1  0
  8 31  1  0
  8 32  1  0
  9 33  1  0
  9 34  1  0
 10 35  1  0
 10 36  1  0
 12 37  1  0
 13 38  1  0
 15 39  1  0
 16 40  1  0
M  CHG  2   6   1   8   1
M  END
$$$$
=
     RDKit          3D

 25 26  0  0  0  0  0  0  0  0999 V2000
   17.2140   16.1050    4.7640 C   0  0  0  0  0  0  0  0  0  0  0  0
   17.3140   14.8700    4.1170 C   0  0  0  0  0  0  0  0  0  0  0  0
   18.5400   14.3940    3.6460 C   0  0  0  0  0  0  0  0  0  0  0  0
   19.6990   15.1250    3.9250 C   0  0  0  0  0  0  0  0  0  0  0  0
   19.6190   16.3660    4.5740 C   0  0  0  0  0  0  0  0  0  0  0  0
   18.3670   16.8570    4.9820 C   0  0  0  0  0  0  0  0  0  0  0  0
   20.7880   17.1350    4.8370 N   0  0  0  0  0  0  0  0  0  0  0  0
   21.3140   18.1740    4.0960 C   0  0  0  0  0  0  0  0  0  0  0  0
   22.4460   18.6070    4.7430 C   0  0  0  0  0  0  0  0  0  0  0  0
   22.5420   17.7810    5.8700 C   0  0  0  0  0  0  0  0  0  0  0  0
   21.5500   16.8940    5.9390 N   0  0  0  0  0  0  0  0  0  0  0  0
   18.6350   13.1050    3.1040 N   0  0  0  0  0  0  0  0  0  0  0  0
   14.8790   15.6960    4.5740 C   0  0  0  0  0  0  0  0  0  0  0  0
   15.9440   16.4540    5.1350 O   0  0  0  0  0  0  0  0  0  0  0  0
   16.4091   14.2607    3.9759 H   0  0  0  0  0  0  0  0  0  0  0  0
   20.6808   14.7238    3.6333 H   0  0  0  0  0  0  0  0  0  0  0  0
   18.2968   17.8379    5.4749 H   0  0  0  0  0  0  0  0  0  0  0  0
   20.9027   18.5803    3.1602 H   0  0  0  0  0  0  0  0  0  0  0  0
   23.1243   19.4195    4.4433 H   0  0  0  0  0  0  0  0  0  0  0  0
   23.3472   17.8562    6.6157 H   0  0  0  0  0  0  0  0  0  0  0  0
   19.5406   12.7574    2.7577 H   0  0  0  0  0  0  0  0  0  0  0  0
   17.7992   12.5053    3.0520 H   0  0  0  0  0  0  0  0  0  0  0  0
   14.2713   15.2635    5.3824 H   0  0  0  0  0  0  0  0  0  0  0  0
   14.2503   16.3509    3.9529 H   0  0  0  0  0  0  0  0  0  0  0  0
   15.2919   14.8875    3.9529 H   0  0  0  0  0  0  0  0  0  0  0  0
  2  1  2  0
  3  2  1  0
  4  3  2  0
  5  4  1  0
  6  1  1  0
  6  5  2  0
  7  5  1  0
  8  7  1  0
  9  8  2  0
 10  9  1  0
 11  7  1  0
 11 10  2  0
 12  3  1  0
 14 13  1  0
 14  1  1  0
  2 15  1  0
  4 16  1  0
  6 17  1  0
  8 18  1  0
  9 19  1  0
 10 20  1  0
 12 21  1  0
 12 22  1  0
 13 23  1  0
 13 24  1  0
 13 25  1  0
M  END
$$$$
=
     RDKit          3D

 44 46  0  0  0  0  0  0  0  0999 V2000
   17.4240   17.6930    5.9520 C   0  0  0  0  0  0  0  0  0  0  0  0
   16.3130   16.8860    5.3090 C   0  0  0  0  0  0  0  0  0  0  0  0
   16.5930   15.3760    5.4350 C   0  0  2  0  0  0  0  0  0  0  0  0
   18.1010   15.0440    5.3780 C   0  0  0  0  0  0  0  0  0  0  0  0
   18.8800   16.0840    4.5740 C   0  0  1  0  0  0  0  0  0  0  0  0
   18.7370   17.4420    5.2330 N   0  0  0  0  0  4  0  0  0  0  0  0
   15.8200   14.5230    4.4480 C   0  0  0  0  0  0  0  0  0  0  0  0
   16.4350   13.8080    3.4080 C   0  0  0  0  0  0  0  0  0  0  0  0
   15.6780   13.0090    2.5460 C   0  0  0  0  0  0  0  0  0  0  0  0
   14.3010   12.9070    2.7140 C   0  0  0  0  0  0  0  0  0  0  0  0
   13.6750   13.6040    3.7410 C   0  0  0  0  0  0  0  0  0  0  0  0
   14.4280   14.4040    4.6020 C   0  0  0  0  0  0  0  0  0  0  0  0
   20.3560   15.6720    4.2590 C   0  0  0  0  0  0  0  0  0  0  0  0
   21.4870   16.6140    4.5920 N   0  0  0  0  0  4  0  0  0  0  0  0
   21.8960   16.9000    6.0170 C   0  0  0  0  0  0  0  0  0  0  0  0
   22.8880   18.0330    5.8440 C   0  0  0  0  0  0  0  0  0  0  0  0
   22.2360   18.8930    4.7740 C   0  0  0  0  0  0  0  0  0  0  0  0
   21.6240   17.9040    3.7930 C   0  0  0  0  0  0  0  0  0  0  0  0
   17.1765   18.7632    5.8936 H   0  0  0  0  0  0  0  0  0  0  0  0
   17.5266   17.3884    7.0040 H   0  0  0  0  0  0  0  0  0  0  0  0
   15.3613   17.1196    5.8088 H   0  0  0  0  0  0  0  0  0  0  0  0
   16.2582   17.1475    4.2419 H   0  0  0  0  0  0  0  0  0  0  0  0
   16.2227   15.1124    6.4367 H   0  0  0  0  0  0  0  0  0  0  0  0
   18.4985   15.0155    6.4033 H   0  0  0  0  0  0  0  0  0  0  0  0
   18.2184   14.0694    4.8817 H   0  0  0  0  0  0  0  0  0  0  0  0
   18.4320   16.1478    3.5714 H   0  0  0  0  0  0  0  0  0  0  0  0
   19.4976   17.5412    5.9204 H   0  0  0  0  0  0  0  0  0  0  0  0
   18.7720   18.1295    4.4669 H   0  0  0  0  0  0  0  0  0  0  0  0
   17.5241   13.8772    3.2699 H   0  0  0  0  0  0  0  0  0  0  0  0
   16.1731   12.4591    1.7321 H   0  0  0  0  0  0  0  0  0  0  0  0
   13.7084   12.2759    2.0354 H   0  0  0  0  0  0  0  0  0  0  0  0
   12.5861   13.5251    3.8752 H   0  0  0  0  0  0  0  0  0  0  0  0
   13.9243   14.9497    5.4135 H   0  0  0  0  0  0  0  0  0  0  0  0
   20.5490   14.7373    4.8060 H   0  0  0  0  0  0  0  0  0  0  0  0
   20.3782   15.6267    3.1602 H   0  0  0  0  0  0  0  0  0  0  0  0
   22.1540   15.9071    4.2510 H   0  0  0  0  0  0  0  0  0  0  0  0
   21.0340   17.2138    6.6240 H   0  0  0  0  0  0  0  0  0  0  0  0
   22.3105   16.0263    6.5413 H   0  0  0  0  0  0  0  0  0  0  0  0
   23.0145   18.5951    6.7811 H   0  0  0  0  0  0  0  0  0  0  0  0
   23.8969   17.6899    5.5711 H   0  0  0  0  0  0  0  0  0  0  0  0
   21.4573   19.5333    5.2140 H   0  0  0  0  0  0  0  0  0  0  0  0
   22.9581   19.5649    4.2871 H   0  0  0  0  0  0  0  0  0  0  0  0
   22.2845   17.7565    2.9258 H   0  0  0  0  0  0  0  0  0  0  0  0
   20.6612   18.2529    3.3913 H   0  0  0  0  0  0  0  0  0  0  0  0
  2  1  1  0
  3  2  1  0
  4  3  1  0
  5  4  1  0
  6  5  1  0
  6  1  1  0
  7  3  1  0
  8  7  2  0
  9  8  1  0
 10  9  2  0
 11 10  1  0
 12 11  2  0
 12  7  1  0
 13  5  1  0
 14 13  1  0
 15 14  1  0
 16 15  1  0
 17 16  1  0
 18 14  1  0
 18 17  1  0
  1 19  1  0
  1 20  1  0
  2 21  1  0
  2 22  1  0
  3 23  1  1
  4 24  1  0
  4 25  1  0
  5 26  1  6
  6 27  1  0
  6 28  1  0
  8 29  1  0
  9 30  1  0
 10 31  1  0
 11 32  1  0
 12 33  1  0
 13 34  1  0
 13 35  1  0
 14 36  1  0
 15 37  1  0
 15 38  1  0
 16 39  1  0
 16 40  1  0
 17 41  1  0
 17 42  1  0
 18 43  1  0
 18 44  1  0
M  CHG  2   6   1  14   1
M  END
$$$$
=
     RDKit          3D

 34 36  0  0  0  0  0  0  0  0999 V2000
   18.0780   15.9780    4.0680 C   0  0  0  0  0  0  0  0  0  0  0  0
   13.5550   15.0160    4.3600 C   0  0  0  0  0  0  0  0  0  0  0  0
   13.1850   13.7820    3.8480 C   0  0  0  0  0  0  0  0  0  0  0  0
   14.1460   12.9140    3.3330 C   0  0  0  0  0  0  0  0  0  0  0  0
   15.4970   13.3090    3.3350 C   0  0  0  0  0  0  0  0  0  0  0  0
   15.9030   14.5530    3.8310 C   0  0  0  0  0  0  0  0  0  0  0  0
   14.8970   15.4090    4.3570 C   0  0  0  0  0  0  0  0  0  0  0  0
   17.3370   14.7380    3.6940 C   0  0  0  0  0  0  0  0  0  0  0  0
   17.9420   13.6110    3.1710 C   0  0  0  0  0  0  0  0  0  0  0  0
   16.8300   12.3900    2.7650 S   0  0  0  0  0  0  0  0  0  0  0  0
   19.4620   15.6590    4.6560 N   0  0  0  0  0  4  0  0  0  0  0  0
   20.4440   16.8240    4.4900 C   0  0  0  0  0  0  0  0  0  0  0  0
   21.8240   16.4870    5.1040 C   0  0  0  0  0  0  0  0  0  0  0  0
   21.6910   16.0080    6.5290 N   0  0  0  0  0  4  0  0  0  0  0  0
   20.7300   14.8590    6.7060 C   0  0  0  0  0  0  0  0  0  0  0  0
   19.3420   15.1880    6.1030 C   0  0  0  0  0  0  0  0  0  0  0  0
   18.2071   16.6004    3.1702 H   0  0  0  0  0  0  0  0  0  0  0  0
   17.4939   16.5078    4.8349 H   0  0  0  0  0  0  0  0  0  0  0  0
   12.7887   15.6897    4.7709 H   0  0  0  0  0  0  0  0  0  0  0  0
   12.1256   13.4859    3.8482 H   0  0  0  0  0  0  0  0  0  0  0  0
   13.8527   11.9333    2.9303 H   0  0  0  0  0  0  0  0  0  0  0  0
   15.1773   16.3909    4.7660 H   0  0  0  0  0  0  0  0  0  0  0  0
   19.0288   13.5139    3.0319 H   0  0  0  0  0  0  0  0  0  0  0  0
   19.8622   14.8792    4.1151 H   0  0  0  0  0  0  0  0  0  0  0  0
   20.5707   17.0360    3.4181 H   0  0  0  0  0  0  0  0  0  0  0  0
   20.0352   17.7005    5.0140 H   0  0  0  0  0  0  0  0  0  0  0  0
   22.2994   15.6971    4.5039 H   0  0  0  0  0  0  0  0  0  0  0  0
   22.4362   17.4009    5.1019 H   0  0  0  0  0  0  0  0  0  0  0  0
   22.6197   15.7062    6.8567 H   0  0  0  0  0  0  0  0  0  0  0  0
   21.3137   16.7969    7.0732 H   0  0  0  0  0  0  0  0  0  0  0  0
   21.1378   13.9701    6.2025 H   0  0  0  0  0  0  0  0  0  0  0  0
   20.6054   14.6735    7.7831 H   0  0  0  0  0  0  0  0  0  0  0  0
   18.8713   15.9827    6.7004 H   0  0  0  0  0  0  0  0  0  0  0  0
   18.7309   14.2735    6.1203 H   0  0  0  0  0  0  0  0  0  0  0  0
  3  2  2  0
  4  3  1  0
  5  4  2  0
  6  5  1  0
  7  6  2  0
  7  2  1  0
  8  6  1  0
  8  1  1  0
  9  8  2  0
 10  5  1  0
 10  9  1  0
 11  1  1  0
 12 11  1  0
 13 12  1  0
 14 13  1  0
 15 14  1  0
 16 11  1  0
 16 15  1  0
  1 17  1  0
  1 18  1  0
  2 19  1  0
  3 20  1  0
  4 21  1  0
  7 22  1  0
  9 23  1  0
 11 24  1  0
 12 25  1  0
 12 26  1  0
 13 27  1  0
 13 28  1  0
 14 29  1  0
 14 30  1  0
 15 31  1  0
 15 32  1  0
 16 33  1  0
 16 34  1  0
M  CHG  2  11   1  14   1
M  END
$$$$
=
     RDKit          3D

 23 24  0  0  0  0  0  0  0  0999 V2000
   20.5440   15.8980    5.0250 C   0  0  1  0  0  0  0  0  0  0  0  0
   19.8860   15.1730    3.8560 N   0  0  0  0  0  4  0  0  0  0  0  0
   18.7840   16.0870    3.3770 C   0  0  1  0  0  0  0  0  0  0  0  0
   18.2970   16.6910    4.6860 C   0  0  0  0  0  0  0  0  0  0  0  0
   19.6880   17.1800    5.0860 C   0  0  2  0  0  0  0  0  0  0  0  0
   20.0540   18.0590    3.8690 C   0  0  0  0  0  0  0  0  0  0  0  0
   19.4680   17.2710    2.6850 C   0  0  0  0  0  0  0  0  0  0  0  0
   20.4580   14.9840    6.2620 C   0  0  0  0  0  0  0  0  0  0  0  0
   21.4300   15.4080    7.2270 O   0  0  0  0  0  0  0  0  0  0  0  0
   21.6137   16.1421    4.9471 H   0  0  0  0  0  0  0  0  0  0  0  0
   20.5701   15.0101    3.1034 H   0  0  0  0  0  0  0  0  0  0  0  0
   19.5208   14.2518    4.1368 H   0  0  0  0  0  0  0  0  0  0  0  0
   18.0343   15.5931    2.7414 H   0  0  0  0  0  0  0  0  0  0  0  0
   17.5725   17.5068    4.5459 H   0  0  0  0  0  0  0  0  0  0  0  0
   17.7443   16.0486    5.3873 H   0  0  0  0  0  0  0  0  0  0  0  0
   19.7933   17.6963    6.0516 H   0  0  0  0  0  0  0  0  0  0  0  0
   19.5936   19.0549    3.9478 H   0  0  0  0  0  0  0  0  0  0  0  0
   21.1346   18.2423    3.7757 H   0  0  0  0  0  0  0  0  0  0  0  0
   20.2614   16.9287    2.0043 H   0  0  0  0  0  0  0  0  0  0  0  0
   18.7862   17.8651    2.0588 H   0  0  0  0  0  0  0  0  0  0  0  0
   19.4510   15.0504    6.6998 H   0  0  0  0  0  0  0  0  0  0  0  0
   20.6572   13.9429    5.9681 H   0  0  0  0  0  0  0  0  0  0  0  0
   21.0779   15.2544    8.1394 H   0  0  0  0  0  0  0  0  0  0  0  0
  2  1  1  0
  3  2  1  0
  4  3  1  0
  5  1  1  0
  5  4  1  0
  6  5  1  0
  7  3  1  0
  7  6  1  0
  8  1  1  0
  9  8  1  0
  1 10  1  6
  2 11  1  0
  2 12  1  0
  3 13  1  6
  4 14  1  0
  4 15  1  0
  5 16  1  1
  6 17  1  0
  6 18  1  0
  7 19  1  0
  7 20  1  0
  8 21  1  0
  8 22  1  0
  9 23  1  0
M  CHG  1   2   1
M  END
$$$$
=
     RDKit          3D

 37 38  0  0  0  0  0  0  0  0999 V2000
   18.5470   16.1800    4.6300 N   0  0  0  0  0  0  0  0  0  0  0  0
   18.2360   15.0570    3.8840 C   0  0  0  0  0  0  0  0  0  0  0  0
   19.0100   14.3660    3.2320 O   0  0  0  0  0  0  0  0  0  0  0  0
   22.3550   17.9830    5.0500 C   0  0  0  0  0  0  0  0  0  0  0  0
   21.5060   18.3920    4.0230 C   0  0  0  0  0  0  0  0  0  0  0  0
   20.2470   17.8030    3.8490 C   0  0  0  0  0  0  0  0  0  0  0  0
   19.8000   16.8190    4.7290 C   0  0  0  0  0  0  0  0  0  0  0  0
   20.6250   16.4530    5.7990 C   0  0  0  0  0  0  0  0  0  0  0  0
   21.8810   17.0450    5.9670 C   0  0  0  0  0  0  0  0  0  0  0  0
   23.5580   18.6570    5.2860 N   0  0  0  0  0  0  0  0  0  0  0  0
   16.8030   14.6490    3.9420 C   0  0  0  0  0  0  0  0  0  0  0  0
   15.8730   15.3370    4.7290 C   0  0  0  0  0  0  0  0  0  0  0  0
   14.5380   14.9230    4.7560 C   0  0  0  0  0  0  0  0  0  0  0  0
   14.1110   13.8250    3.9950 C   0  0  0  0  0  0  0  0  0  0  0  0
   15.0490   13.1540    3.1940 C   0  0  0  0  0  0  0  0  0  0  0  0
   16.3830   13.5670    3.1640 C   0  0  0  0  0  0  0  0  0  0  0  0
   12.6530   13.3980    4.0390 C   0  0  0  0  0  0  0  0  0  0  0  0
   11.7310   14.5770    4.3600 C   0  0  0  0  0  0  0  0  0  0  0  0
   12.2270   12.7120    2.7380 C   0  0  0  0  0  0  0  0  0  0  0  0
   17.7773   16.5956    5.1737 H   0  0  0  0  0  0  0  0  0  0  0  0
   21.8297   19.1898    3.3384 H   0  0  0  0  0  0  0  0  0  0  0  0
   19.6069   18.1192    3.0122 H   0  0  0  0  0  0  0  0  0  0  0  0
   20.2819   15.6918    6.5152 H   0  0  0  0  0  0  0  0  0  0  0  0
   22.5018   16.7678    6.8318 H   0  0  0  0  0  0  0  0  0  0  0  0
   24.1803   18.3489    6.0468 H   0  0  0  0  0  0  0  0  0  0  0  0
   23.8214   19.4613    4.6990 H   0  0  0  0  0  0  0  0  0  0  0  0
   16.1923   16.2036    5.3265 H   0  0  0  0  0  0  0  0  0  0  0  0
   13.8136   15.4650    5.3817 H   0  0  0  0  0  0  0  0  0  0  0  0
   14.7304   12.2954    2.5847 H   0  0  0  0  0  0  0  0  0  0  0  0
   17.1059   13.0383    2.5253 H   0  0  0  0  0  0  0  0  0  0  0  0
   12.5572   12.6642    4.8528 H   0  0  0  0  0  0  0  0  0  0  0  0
   11.6441   14.6881    5.4509 H   0  0  0  0  0  0  0  0  0  0  0  0
   12.1507   15.4983    3.9299 H   0  0  0  0  0  0  0  0  0  0  0  0
   10.7357   14.3918    3.9299 H   0  0  0  0  0  0  0  0  0  0  0  0
   11.6601   11.7992    2.9734 H   0  0  0  0  0  0  0  0  0  0  0  0
   11.5944   13.3958    2.1530 H   0  0  0  0  0  0  0  0  0  0  0  0
   13.1204   12.4482    2.1530 H   0  0  0  0  0  0  0  0  0  0  0  0
  2  1  1  0
  3  2  2  0
  5  4  2  0
  6  5  1  0
  7  1  1  0
  7  6  2  0
  8  7  1  0
  9  8  2  0
  9  4  1  0
 10  4  1  0
 11  2  1  0
 12 11  2  0
 13 12  1  0
 14 13  2  0
 15 14  1  0
 16 15  2  0
 16 11  1  0
 17 14  1  0
 18 17  1  0
 19 17  1  0
  1 20  1  0
  5 21  1  0
  6 22  1  0
  8 23  1  0
  9 24  1  0
 10 25  1  0
 10 26  1  0
 12 27  1  0
 13 28  1  0
 15 29  1  0
 16 30  1  0
 17 31  1  0
 18 32  1  0
 18 33  1  0
 18 34  1  0
 19 35  1  0
 19 36  1  0
 19 37  1  0
M  END
$$$$
=
     RDKit          3D

 43 44  0  0  0  0  0  0  0  0999 V2000
   18.3640   17.0380    5.2070 C   0  0  1  0  0  0  0  0  0  0  0  0
   19.4160   18.0920    5.6050 C   0  0  0  0  0  0  0  0  0  0  0  0
   20.6930   18.0330    4.7630 C   0  0  0  0  0  0  0  0  0  0  0  0
   21.7350   17.0650    5.3260 C   0  0  0  0  0  0  0  0  0  0  0  0
   21.3510   15.5880    5.2660 C   0  0  0  0  0  0  0  0  0  0  0  0
   20.0160   15.2680    5.9370 C   0  0  0  0  0  0  0  0  0  0  0  0
   18.8850   15.6620    5.0930 N   0  0  0  0  0  0  0  0  0  0  0  0
   18.4460   14.7230    4.1440 C   0  0  0  0  0  0  0  0  0  0  0  0
   18.9610   13.6030    4.0720 O   0  0  0  0  0  0  0  0  0  0  0  0
   16.7190   15.8070    6.8010 C   0  0  0  0  0  0  0  0  0  0  0  0
   17.1150   17.1090    6.1170 C   0  0  0  0  0  0  0  0  0  0  0  0
   17.3460   15.1560    3.1780 C   0  0  0  0  0  0  0  0  0  0  0  0
   16.0950   14.3080    3.2330 C   0  0  0  0  0  0  0  0  0  0  0  0
   16.0610   13.0450    2.6300 C   0  0  0  0  0  0  0  0  0  0  0  0
   14.9020   12.2650    2.6840 C   0  0  0  0  0  0  0  0  0  0  0  0
   13.7770   12.7060    3.3830 C   0  0  0  0  0  0  0  0  0  0  0  0
   13.7950   13.9850    3.9410 C   0  0  0  0  0  0  0  0  0  0  0  0
   14.9500   14.7720    3.8900 C   0  0  0  0  0  0  0  0  0  0  0  0
   12.5840   11.9710    3.3370 N   0  0  0  0  0  0  0  0  0  0  0  0
   18.0607   17.3075    4.1845 H   0  0  0  0  0  0  0  0  0  0  0  0
   18.9690   19.0903    5.4889 H   0  0  0  0  0  0  0  0  0  0  0  0
   19.7058   17.8812    6.6450 H   0  0  0  0  0  0  0  0  0  0  0  0
   20.4276   17.7097    3.7456 H   0  0  0  0  0  0  0  0  0  0  0  0
   21.1393   19.0384    4.7707 H   0  0  0  0  0  0  0  0  0  0  0  0
   22.6660   17.1979    4.7554 H   0  0  0  0  0  0  0  0  0  0  0  0
   21.8344   17.3111    6.3935 H   0  0  0  0  0  0  0  0  0  0  0  0
   21.2880   15.2891    4.2093 H   0  0  0  0  0  0  0  0  0  0  0  0
   22.1259   15.0339    5.8160 H   0  0  0  0  0  0  0  0  0  0  0  0
   19.9611   14.1858    6.1265 H   0  0  0  0  0  0  0  0  0  0  0  0
   19.9580   15.8329    6.8791 H   0  0  0  0  0  0  0  0  0  0  0  0
   16.7592   15.9391    7.8923 H   0  0  0  0  0  0  0  0  0  0  0  0
   15.6966   15.5321    6.5023 H   0  0  0  0  0  0  0  0  0  0  0  0
   17.4152   15.0094    6.5023 H   0  0  0  0  0  0  0  0  0  0  0  0
   16.2659   17.4380    5.4999 H   0  0  0  0  0  0  0  0  0  0  0  0
   17.3749   17.8056    6.9277 H   0  0  0  0  0  0  0  0  0  0  0  0
   17.0687   16.1936    3.4156 H   0  0  0  0  0  0  0  0  0  0  0  0
   17.7570   15.0427    2.1640 H   0  0  0  0  0  0  0  0  0  0  0  0
   16.9523   12.6637    2.1102 H   0  0  0  0  0  0  0  0  0  0  0  0
   14.8763   11.2929    2.1699 H   0  0  0  0  0  0  0  0  0  0  0  0
   12.8900   14.3788    4.4267 H   0  0  0  0  0  0  0  0  0  0  0  0
   14.9584   15.7620    4.3694 H   0  0  0  0  0  0  0  0  0  0  0  0
   11.7562   12.2999    3.8542 H   0  0  0  0  0  0  0  0  0  0  0  0
   12.5353   11.1021    2.7860 H   0  0  0  0  0  0  0  0  0  0  0  0
  2  1  1  0
  3  2  1  0
  4  3  1  0
  5  4  1  0
  6  5  1  0
  7  6  1  0
  7  1  1  0
  8  7  1  0
  9  8  2  0
 11 10  1  0
 11  1  1  0
 12  8  1  0
 13 12  1  0
 14 13  2  0
 15 14  1  0
 16 15  2  0
 17 16  1  0
 18 17  2  0
 18 13  1  0
 19 16  1  0
  1 20  1  6
  2 21  1  0
  2 22  1  0
  3 23  1  0
  3 24  1  0
  4 25  1  0
  4 26  1  0
  5 27  1  0
  5 28  1  0
  6 29  1  0
  6 30  1  0
 10 31  1  0
 10 32  1  0
 10 33  1  0
 11 34  1  0
 11 35  1  0
 12 36  1  0
 12 37  1  0
 14 38  1  0
 15 39  1  0
 17 40  1  0
 18 41  1  0
 19 42  1  0
 19 43  1  0
M  END
$$$$
=
     RDKit          3D

 38 40  0  0  0  0  0  0  0  0999 V2000
   19.2450   16.8180    4.1760 C   0  0  2  0  0  0  0  0  0  0  0  0
   17.8820   16.1710    4.3760 C   0  0  0  0  0  0  0  0  0  0  0  0
   17.0110   16.5410    5.4330 C   0  0  0  0  0  0  0  0  0  0  0  0
   15.7640   15.9230    5.5920 C   0  0  0  0  0  0  0  0  0  0  0  0
   15.4100   14.9390    4.6970 C   0  0  0  0  0  0  0  0  0  0  0  0
   16.2460   14.5640    3.6790 C   0  0  0  0  0  0  0  0  0  0  0  0
   17.4800   15.1500    3.4910 C   0  0  0  0  0  0  0  0  0  0  0  0
   15.7170   13.5770    2.9100 O   0  0  0  0  0  0  0  0  0  0  0  0
   14.4450   13.3620    3.5680 C   0  0  0  0  0  0  0  0  0  0  0  0
   14.2490   14.2390    4.7010 O   0  0  0  0  0  0  0  0  0  0  0  0
   19.8580   17.2680    5.5110 N   0  0  0  0  0  4  0  0  0  0  0  0
   20.5490   18.6310    5.5690 C   0  0  0  0  0  0  0  0  0  0  0  0
   21.9350   18.5790    4.9110 C   0  0  0  0  0  0  0  0  0  0  0  0
   22.3980   17.2280    4.7450 O   0  0  0  0  0  0  0  0  0  0  0  0
   22.2290   16.4770    5.9540 C   0  0  0  0  0  0  0  0  0  0  0  0
   20.7350   16.2140    6.2070 C   0  0  0  0  0  0  0  0  0  0  0  0
   19.2690   17.8710    3.0010 C   0  0  0  0  0  0  0  0  0  0  0  0
   19.9600   17.3590    1.7620 N   0  0  0  0  0  4  0  0  0  0  0  0
   19.9382   16.0474    3.8078 H   0  0  0  0  0  0  0  0  0  0  0  0
   17.3199   17.3259    6.1391 H   0  0  0  0  0  0  0  0  0  0  0  0
   15.0873   16.2156    6.4084 H   0  0  0  0  0  0  0  0  0  0  0  0
   18.1360   14.8280    2.6688 H   0  0  0  0  0  0  0  0  0  0  0  0
   13.6383   13.5395    2.8416 H   0  0  0  0  0  0  0  0  0  0  0  0
   14.4343   12.3276    3.9420 H   0  0  0  0  0  0  0  0  0  0  0  0
   18.9838   17.3901    6.0418 H   0  0  0  0  0  0  0  0  0  0  0  0
   19.9288   19.3705    5.0413 H   0  0  0  0  0  0  0  0  0  0  0  0
   20.6749   18.9131    6.6247 H   0  0  0  0  0  0  0  0  0  0  0  0
   21.8782   19.0596    3.9232 H   0  0  0  0  0  0  0  0  0  0  0  0
   22.6443   19.1049    5.5670 H   0  0  0  0  0  0  0  0  0  0  0  0
   22.7574   15.5165    5.8628 H   0  0  0  0  0  0  0  0  0  0  0  0
   22.6415   17.0520    6.7962 H   0  0  0  0  0  0  0  0  0  0  0  0
   20.5435   16.2465    7.2897 H   0  0  0  0  0  0  0  0  0  0  0  0
   20.4816   15.2251    5.7972 H   0  0  0  0  0  0  0  0  0  0  0  0
   18.2318   18.1300    2.7417 H   0  0  0  0  0  0  0  0  0  0  0  0
   19.8354   18.7449    3.3551 H   0  0  0  0  0  0  0  0  0  0  0  0
   20.7583   16.7675    2.0337 H   0  0  0  0  0  0  0  0  0  0  0  0
   19.2961   16.8042    1.2031 H   0  0  0  0  0  0  0  0  0  0  0  0
   20.2975   18.1556    1.2031 H   0  0  0  0  0  0  0  0  0  0  0  0
  2  1  1  0
  3  2  2  0
  4  3  1  0
  5  4  2  0
  6  5  1  0
  7  6  2  0
  7  2  1  0
  8  6  1  0
  9  8  1  0
 10  9  1  0
 10  5  1  0
 11  1  1  0
 12 11  1  0
 13 12  1  0
 14 13  1  0
 15 14  1  0
 16 11  1  0
 16 15  1  0
 17  1  1  0
 18 17  1  0
  1 19  1  6
  3 20  1  0
  4 21  1  0
  7 22  1  0
  9 23  1  0
  9 24  1  0
 11 25  1  0
 12 26  1  0
 12 27  1  0
 13 28  1  0
 13 29  1  0
 15 30  1  0
 15 31  1  0
 16 32  1  0
 16 33  1  0
 17 34  1  0
 17 35  1  0
 18 36  1  0
 18 37  1  0
 18 38  1  0
M  CHG  2  11   1  18   1
M  END
$$$$
=
     RDKit          3D

 30 31  0  0  0  0  0  0  0  0999 V2000
   20.0560   16.1190    5.3980 C   0  0  0  0  0  0  0  0  0  0  0  0
   21.0600   16.8840    4.8320 C   0  0  0  0  0  0  0  0  0  0  0  0
   20.9830   17.4360    3.6070 N   0  0  0  0  0  0  0  0  0  0  0  0
   19.8550   17.2210    2.9400 C   0  0  0  0  0  0  0  0  0  0  0  0
   18.8420   16.4760    3.3810 N   0  0  0  0  0  0  0  0  0  0  0  0
   18.9290   15.9190    4.6120 C   0  0  0  0  0  0  0  0  0  0  0  0
   17.8500   15.1220    5.0410 N   0  0  0  0  0  0  0  0  0  0  0  0
   16.9190   15.9100    5.8840 C   0  0  0  0  0  0  0  0  0  0  0  0
   15.5210   15.5100    5.4160 C   0  0  0  0  0  0  0  0  0  0  0  0
   15.7350   15.2070    3.9470 C   0  0  0  0  0  0  0  0  0  0  0  0
   17.0710   14.4780    3.9680 C   0  0  0  0  0  0  0  0  0  0  0  0
   19.7430   17.7690    1.6810 N   0  0  0  0  0  0  0  0  0  0  0  0
   20.8410   14.4860    6.9660 O   0  0  0  0  0  0  0  0  0  0  0  0
   20.2740   15.5460    6.7400 C   0  0  0  0  0  0  0  0  0  0  0  0
   22.2100   17.0960    5.5720 O   0  0  0  0  0  0  0  0  0  0  0  0
   22.9590   18.2370    5.1600 C   0  0  0  0  0  0  0  0  0  0  0  0
   17.0561   15.6613    6.9467 H   0  0  0  0  0  0  0  0  0  0  0  0
   17.0916   16.9921    5.7872 H   0  0  0  0  0  0  0  0  0  0  0  0
   15.1611   14.6217    5.9558 H   0  0  0  0  0  0  0  0  0  0  0  0
   14.7622   16.2859    5.5954 H   0  0  0  0  0  0  0  0  0  0  0  0
   14.9350   14.5647    3.5503 H   0  0  0  0  0  0  0  0  0  0  0  0
   15.7255   16.0989    3.3033 H   0  0  0  0  0  0  0  0  0  0  0  0
   16.9236   13.4101    4.1869 H   0  0  0  0  0  0  0  0  0  0  0  0
   17.5848   14.5364    2.9971 H   0  0  0  0  0  0  0  0  0  0  0  0
   18.8839   17.6252    1.1313 H   0  0  0  0  0  0  0  0  0  0  0  0
   20.5183   18.3225    1.2894 H   0  0  0  0  0  0  0  0  0  0  0  0
   19.8981   16.1153    7.6029 H   0  0  0  0  0  0  0  0  0  0  0  0
   23.3161   18.7810    6.0469 H   0  0  0  0  0  0  0  0  0  0  0  0
   23.8202   17.9123    4.5576 H   0  0  0  0  0  0  0  0  0  0  0  0
   22.3186   18.8981    4.5576 H   0  0  0  0  0  0  0  0  0  0  0  0
  2  1  2  0
  3  2  1  0
  4  3  2  0
  5  4  1  0
  6  1  1  0
  6  5  2  0
  7  6  1  0
  8  7  1  0
  9  8  1  0
 10  9  1  0
 11 10  1  0
 11  7  1  0
 12  4  1  0
 14  1  1  0
 14 13  2  0
 15  2  1  0
 16 15  1  0
  8 17  1  0
  8 18  1  0
  9 19  1  0
  9 20  1  0
 10 21  1  0
 10 22  1  0
 11 23  1  0
 11 24  1  0
 12 25  1  0
 12 26  1  0
 14 27  1  0
 16 28  1  0
 16 29  1  0
 16 30  1  0
M  END
$$$$
=
     RDKit          3D

 33 34  0  0  0  0  0  0  0  0999 V2000
   18.1090   14.9670    3.5350 O   0  0  0  0  0  0  0  0  0  0  0  0
   16.8180   14.5160    3.6310 C   0  0  0  0  0  0  0  0  0  0  0  0
   15.8850   15.3750    4.2140 C   0  0  0  0  0  0  0  0  0  0  0  0
   14.5580   14.9710    4.3440 C   0  0  0  0  0  0  0  0  0  0  0  0
   14.1720   13.7100    3.8930 C   0  0  0  0  0  0  0  0  0  0  0  0
   15.1060   12.8640    3.2860 C   0  0  0  0  0  0  0  0  0  0  0  0
   16.4270   13.2770    3.0940 C   0  0  0  0  0  0  0  0  0  0  0  0
   17.3670   12.3740    2.5680 N   0  0  0  0  0  0  0  0  0  0  0  0
   18.2430   16.2950    4.0470 C   0  0  0  0  0  0  0  0  0  0  0  0
   19.3880   17.3700    2.2030 O   0  0  0  0  0  0  0  0  0  0  0  0
   19.4160   17.0380    3.3910 C   0  0  0  0  0  0  0  0  0  0  0  0
   20.5140   17.3160    4.1960 N   0  0  0  0  0  0  0  0  0  0  0  0
   20.6620   16.8970    5.5930 C   0  0  0  0  0  0  0  0  0  0  0  0
   22.1370   16.8510    6.0030 C   0  0  0  0  0  0  0  0  0  0  0  0
   22.8120   18.1040    5.8400 O   0  0  0  0  0  0  0  0  0  0  0  0
   22.3320   18.8920    4.7390 C   0  0  0  0  0  0  0  0  0  0  0  0
   21.6360   18.0760    3.6450 C   0  0  0  0  0  0  0  0  0  0  0  0
   16.1966   16.3681    4.5698 H   0  0  0  0  0  0  0  0  0  0  0  0
   13.8179   15.6445    4.8007 H   0  0  0  0  0  0  0  0  0  0  0  0
   13.1300   13.3792    4.0147 H   0  0  0  0  0  0  0  0  0  0  0  0
   14.7968   11.8613    2.9558 H   0  0  0  0  0  0  0  0  0  0  0  0
   18.3424   12.6717    2.4239 H   0  0  0  0  0  0  0  0  0  0  0  0
   17.0804   11.4146    2.3267 H   0  0  0  0  0  0  0  0  0  0  0  0
   17.3138   16.8494    3.8490 H   0  0  0  0  0  0  0  0  0  0  0  0
   18.4385   16.2291    5.1275 H   0  0  0  0  0  0  0  0  0  0  0  0
   20.1316   17.6111    6.2401 H   0  0  0  0  0  0  0  0  0  0  0  0
   20.2383   15.8877    5.7012 H   0  0  0  0  0  0  0  0  0  0  0  0
   22.1957   16.5584    7.0618 H   0  0  0  0  0  0  0  0  0  0  0  0
   22.6351   16.1255    5.3430 H   0  0  0  0  0  0  0  0  0  0  0  0
   21.6155   19.6302    5.1285 H   0  0  0  0  0  0  0  0  0  0  0  0
   23.2127   19.3601    4.2750 H   0  0  0  0  0  0  0  0  0  0  0  0
   22.3604   17.3778    3.2003 H   0  0  0  0  0  0  0  0  0  0  0  0
   21.2512   18.7677    2.8812 H   0  0  0  0  0  0  0  0  0  0  0  0
  2  1  1  0
  3  2  2  0
  4  3  1  0
  5  4  2  0
  6  5  1  0
  7  6  2  0
  7  2  1  0
  8  7  1  0
  9  1  1  0
 11  9  1  0
 11 10  2  0
 12 11  1  0
 13 12  1  0
 14 13  1  0
 15 14  1  0
 16 15  1  0
 17 12  1  0
 17 16  1  0
  3 18  1  0
  4 19  1  0
  5 20  1  0
  6 21  1  0
  8 22  1  0
  8 23  1  0
  9 24  1  0
  9 25  1  0
 13 26  1  0
 13 27  1  0
 14 28  1  0
 14 29  1  0
 16 30  1  0
 16 31  1  0
 17 32  1  0
 17 33  1  0
M  END
$$$$
=
     RDKit          3D

 64 68  0  0  0  0  0  0  0  0999 V2000
   25.7360   26.3210   14.6530 C   0  0  1  0  0  0  0  0  0  0  0  0
   24.5800   26.1880   13.6340 C   0  0  0  0  0  0  0  0  0  0  0  0
   24.7050   24.9840   12.7420 N   0  0  2  0  0  4  0  0  0  0  0  0
   24.8970   23.6580   13.4430 C   0  0  0  0  0  0  0  0  0  0  0  0
   25.3250   23.8330   14.9050 C   0  0  0  0  0  0  0  0  0  0  0  0
   26.3530   24.9490   15.0210 C   0  0  2  0  0  0  0  0  0  0  0  0
   28.5010   29.4830   13.5740 C   0  0  0  0  0  0  0  0  0  0  0  0
   27.5950   29.6470   14.6140 C   0  0  0  0  0  0  0  0  0  0  0  0
   26.7140   28.6150   14.9400 C   0  0  0  0  0  0  0  0  0  0  0  0
   26.7290   27.3940   14.2360 C   0  0  0  0  0  0  0  0  0  0  0  0
   27.6440   27.2540   13.1820 C   0  0  0  0  0  0  0  0  0  0  0  0
   28.5240   28.2910   12.8580 C   0  0  0  0  0  0  0  0  0  0  0  0
   27.0400   24.9840   16.3680 N   0  0  0  0  0  4  0  0  0  0  0  0
   28.5610   24.9840   16.4850 C   0  0  1  0  0  0  0  0  0  0  0  0
   29.1190   24.2650   15.2420 C   0  0  0  0  0  0  0  0  0  0  0  0
   30.6050   24.5410   15.0590 C   0  0  0  0  0  0  0  0  0  0  0  0
   30.8230   26.0290   14.8110 C   0  0  0  0  0  0  0  0  0  0  0  0
   30.1590   26.8760   15.8690 C   0  0  0  0  0  0  0  0  0  0  0  0
   29.1020   26.3910   16.6660 C   0  0  0  0  0  0  0  0  0  0  0  0
   28.5970   27.2220   17.6860 C   0  0  0  0  0  0  0  0  0  0  0  0
   29.0730   28.5230   17.8580 C   0  0  0  0  0  0  0  0  0  0  0  0
   30.0730   29.0110   17.0280 C   0  0  0  0  0  0  0  0  0  0  0  0
   30.6170   28.1920   16.0430 C   0  0  0  0  0  0  0  0  0  0  0  0
   25.5910   25.2050   11.5150 C   0  0  0  0  0  0  0  0  0  0  0  0
   26.5970   24.1020   11.3350 C   0  0  0  0  0  0  0  0  0  0  0  0
   26.2150   22.8600   10.8040 C   0  0  0  0  0  0  0  0  0  0  0  0
   27.1620   21.8540   10.6080 C   0  0  0  0  0  0  0  0  0  0  0  0
   28.4960   22.0750   10.9430 C   0  0  0  0  0  0  0  0  0  0  0  0
   28.8860   23.2990   11.4820 C   0  0  0  0  0  0  0  0  0  0  0  0
   27.9430   24.3080   11.6790 C   0  0  0  0  0  0  0  0  0  0  0  0
   25.3200   26.6849   15.6041 H   0  0  0  0  0  0  0  0  0  0  0  0
   23.6331   26.1139   14.1888 H   0  0  0  0  0  0  0  0  0  0  0  0
   24.6145   27.0765   12.9864 H   0  0  0  0  0  0  0  0  0  0  0  0
   23.7564   24.8800   12.3544 H   0  0  0  0  0  0  0  0  0  0  0  0
   23.9482   23.1021   13.4156 H   0  0  0  0  0  0  0  0  0  0  0  0
   25.6959   23.1118   12.9201 H   0  0  0  0  0  0  0  0  0  0  0  0
   24.4443   24.0854   15.5138 H   0  0  0  0  0  0  0  0  0  0  0  0
   25.7722   22.8940   15.2632 H   0  0  0  0  0  0  0  0  0  0  0  0
   27.1414   24.7255   14.2872 H   0  0  0  0  0  0  0  0  0  0  0  0
   29.1985   30.2939   13.3174 H   0  0  0  0  0  0  0  0  0  0  0  0
   27.5720   30.5898   15.1803 H   0  0  0  0  0  0  0  0  0  0  0  0
   25.9954   28.7569   15.7606 H   0  0  0  0  0  0  0  0  0  0  0  0
   27.6694   26.3183   12.6042 H   0  0  0  0  0  0  0  0  0  0  0  0
   29.2389   28.1633   12.0318 H   0  0  0  0  0  0  0  0  0  0  0  0
   26.7119   25.8387   16.8399 H   0  0  0  0  0  0  0  0  0  0  0  0
   26.7861   24.0707   16.7708 H   0  0  0  0  0  0  0  0  0  0  0  0
   28.8888   24.4425   17.3846 H   0  0  0  0  0  0  0  0  0  0  0  0
   28.9681   23.1816   15.3578 H   0  0  0  0  0  0  0  0  0  0  0  0
   28.5860   24.6418   14.3566 H   0  0  0  0  0  0  0  0  0  0  0  0
   31.1479   24.2379   15.9664 H   0  0  0  0  0  0  0  0  0  0  0  0
   30.9789   23.9688   14.1971 H   0  0  0  0  0  0  0  0  0  0  0  0
   31.9033   26.2362   14.8150 H   0  0  0  0  0  0  0  0  0  0  0  0
   30.3756   26.2830   13.8387 H   0  0  0  0  0  0  0  0  0  0  0  0
   27.8147   26.8391   18.3578 H   0  0  0  0  0  0  0  0  0  0  0  0
   28.6558   29.1612   18.6509 H   0  0  0  0  0  0  0  0  0  0  0  0
   30.4347   30.0428   17.1486 H   0  0  0  0  0  0  0  0  0  0  0  0
   31.4151   28.5801   15.3931 H   0  0  0  0  0  0  0  0  0  0  0  0
   24.9524   25.2515   10.6206 H   0  0  0  0  0  0  0  0  0  0  0  0
   26.1431   26.1450   11.6619 H   0  0  0  0  0  0  0  0  0  0  0  0
   25.1625   22.6786   10.5407 H   0  0  0  0  0  0  0  0  0  0  0  0
   26.8546   20.8848   10.1882 H   0  0  0  0  0  0  0  0  0  0  0  0
   29.2418   21.2826   10.7819 H   0  0  0  0  0  0  0  0  0  0  0  0
   29.9384   23.4700   11.7525 H   0  0  0  0  0  0  0  0  0  0  0  0
   28.2559   25.2719   12.1068 H   0  0  0  0  0  0  0  0  0  0  0  0
  2  1  1  0
  3  2  1  0
  4  3  1  0
  5  4  1  0
  6  5  1  0
  6  1  1  0
  8  7  2  0
  9  8  1  0
 10  1  1  0
 10  9  2  0
 11 10  1  0
 12 11  2  0
 12  7  1  0
 13  6  1  0
 14 13  1  0
 15 14  1  0
 16 15  1  0
 17 16  1  0
 18 17  1  0
 19 18  2  0
 19 14  1  0
 20 19  1  0
 21 20  2  0
 22 21  1  0
 23 18  1  0
 23 22  2  0
 24  3  1  0
 25 24  1  0
 26 25  2  0
 27 26  1  0
 28 27  2  0
 29 28  1  0
 30 25  1  0
 30 29  2  0
  1 31  1  1
  2 32  1  0
  2 33  1  0
  3 34  1  6
  4 35  1  0
  4 36  1  0
  5 37  1  0
  5 38  1  0
  6 39  1  6
  7 40  1  0
  8 41  1  0
  9 42  1  0
 11 43  1  0
 12 44  1  0
 13 45  1  0
 13 46  1  0
 14 47  1  1
 15 48  1  0
 15 49  1  0
 16 50  1  0
 16 51  1  0
 17 52  1  0
 17 53  1  0
 20 54  1  0
 21 55  1  0
 22 56  1  0
 23 57  1  0
 24 58  1  0
 24 59  1  0
 26 60  1  0
 27 61  1  0
 28 62  1  0
 29 63  1  0
 30 64  1  0
M  CHG  2   3   1  13   1
M  END
$$$$
=
     RDKit          3D

 24 24  0  0  0  0  0  0  0  0999 V2000
   12.0230   13.5450    5.2290 C   0  0  0  0  0  0  0  0  0  0  0  0
   12.5170   13.8250    3.8800 N   0  0  0  0  0  0  0  0  0  0  0  0
   13.9100   14.0560    3.8560 C   0  0  0  0  0  0  0  0  0  0  0  0
   14.7140   13.2620    3.1220 N   0  0  0  0  0  0  0  0  0  0  0  0
   16.0420   13.5260    3.1260 C   0  0  0  0  0  0  0  0  0  0  0  0
   16.6670   14.5300    3.8640 C   0  0  0  0  0  0  0  0  0  0  0  0
   15.8220   15.3990    4.5590 C   0  0  0  0  0  0  0  0  0  0  0  0
   14.4400   15.1390    4.5620 C   0  0  0  0  0  0  0  0  0  0  0  0
   16.3460   16.5990    5.2940 C   0  0  0  0  0  0  0  0  0  0  0  0
   12.0930   12.8480    2.8770 C   0  0  0  0  0  0  0  0  0  0  0  0
   18.0370   14.7840    3.7180 N   0  0  0  0  0  0  0  0  0  0  0  0
   12.7308   13.9462    5.9693 H   0  0  0  0  0  0  0  0  0  0  0  0
   11.0406   14.0205    5.3658 H   0  0  0  0  0  0  0  0  0  0  0  0
   11.9263   12.4578    5.3658 H   0  0  0  0  0  0  0  0  0  0  0  0
   16.6824   12.8943    2.4928 H   0  0  0  0  0  0  0  0  0  0  0  0
   13.7660   15.7982    5.1287 H   0  0  0  0  0  0  0  0  0  0  0  0
   16.2708   16.4268    6.3778 H   0  0  0  0  0  0  0  0  0  0  0  0
   17.3986   16.7652    5.0213 H   0  0  0  0  0  0  0  0  0  0  0  0
   15.7524   17.4840    5.0213 H   0  0  0  0  0  0  0  0  0  0  0  0
   11.7037   11.9509    3.3806 H   0  0  0  0  0  0  0  0  0  0  0  0
   11.3044   13.2868    2.2481 H   0  0  0  0  0  0  0  0  0  0  0  0
   12.9522   12.5717    2.2481 H   0  0  0  0  0  0  0  0  0  0  0  0
   18.4843   15.5294    4.2705 H   0  0  0  0  0  0  0  0  0  0  0  0
   18.5969   14.2254    3.0582 H   0  0  0  0  0  0  0  0  0  0  0  0
  2  1  1  0
  3  2  1  0
  4  3  2  0
  5  4  1  0
  6  5  2  0
  7  6  1  0
  8  7  2  0
  8  3  1  0
  9  7  1  0
 10  2  1  0
 11  6  1  0
  1 12  1  0
  1 13  1  0
  1 14  1  0
  5 15  1  0
  8 16  1  0
  9 17  1  0
  9 18  1  0
  9 19  1  0
 10 20  1  0
 10 21  1  0
 10 22  1  0
 11 23  1  0
 11 24  1  0
M  END
$$$$
=
     RDKit          3D

 42 42  0  0  0  0  0  0  0  0999 V2000
   15.7940   15.3060    4.8070 C   0  0  0  0  0  0  0  0  0  0  0  0
   16.6870   15.0840    3.7520 C   0  0  0  0  0  0  0  0  0  0  0  0
   17.9270   15.7330    3.7180 C   0  0  0  0  0  0  0  0  0  0  0  0
   18.3130   16.6260    4.7280 C   0  0  0  0  0  0  0  0  0  0  0  0
   17.4030   16.8410    5.7790 C   0  0  0  0  0  0  0  0  0  0  0  0
   16.1630   16.1960    5.8200 C   0  0  0  0  0  0  0  0  0  0  0  0
   19.6730   17.3510    4.7220 C   0  0  0  0  0  0  0  0  0  0  0  0
   20.8350   16.5070    5.2920 C   0  0  0  0  0  0  0  0  0  0  0  0
   20.0530   17.7300    3.2740 C   0  0  0  0  0  0  0  0  0  0  0  0
   19.5790   18.6340    5.5750 C   0  0  0  0  0  0  0  0  0  0  0  0
   14.4440   14.6510    4.8160 C   0  0  0  0  0  0  0  0  0  0  0  0
   14.4100   13.5270    3.8340 N   0  0  0  0  0  4  0  0  0  0  0  0
   13.2100   12.6440    3.8720 C   0  0  0  0  0  0  0  0  0  0  0  0
   11.3340   12.0840    2.3180 C   0  0  0  0  0  0  0  0  0  0  0  0
   12.0260   13.2170    3.0830 C   0  0  0  0  0  0  0  0  0  0  0  0
   11.0100   13.9320    3.9740 C   0  0  0  0  0  0  0  0  0  0  0  0
   16.4117   14.3928    2.9418 H   0  0  0  0  0  0  0  0  0  0  0  0
   18.6134   15.5382    2.8808 H   0  0  0  0  0  0  0  0  0  0  0  0
   17.6738   17.5341    6.5891 H   0  0  0  0  0  0  0  0  0  0  0  0
   15.4734   16.3901    6.6547 H   0  0  0  0  0  0  0  0  0  0  0  0
   20.8012   16.5316    6.3912 H   0  0  0  0  0  0  0  0  0  0  0  0
   20.7377   15.4676    4.9453 H   0  0  0  0  0  0  0  0  0  0  0  0
   21.7933   16.9210    4.9453 H   0  0  0  0  0  0  0  0  0  0  0  0
   20.8318   18.5067    3.2906 H   0  0  0  0  0  0  0  0  0  0  0  0
   20.4332   16.8407    2.7500 H   0  0  0  0  0  0  0  0  0  0  0  0
   19.1647   18.1126    2.7500 H   0  0  0  0  0  0  0  0  0  0  0  0
   19.5985   18.3672    6.6420 H   0  0  0  0  0  0  0  0  0  0  0  0
   20.4315   19.2902    5.3455 H   0  0  0  0  0  0  0  0  0  0  0  0
   18.6400   19.1589    5.3455 H   0  0  0  0  0  0  0  0  0  0  0  0
   14.2364   14.2601    5.8230 H   0  0  0  0  0  0  0  0  0  0  0  0
   13.6825   15.3943    4.5374 H   0  0  0  0  0  0  0  0  0  0  0  0
   14.4681   13.9349    2.8900 H   0  0  0  0  0  0  0  0  0  0  0  0
   15.2022   12.9199    4.0885 H   0  0  0  0  0  0  0  0  0  0  0  0
   13.4785   11.6673    3.4432 H   0  0  0  0  0  0  0  0  0  0  0  0
   12.8965   12.5557    4.9227 H   0  0  0  0  0  0  0  0  0  0  0  0
   10.8985   11.3710    3.0335 H   0  0  0  0  0  0  0  0  0  0  0  0
   10.5369   12.5020    1.6856 H   0  0  0  0  0  0  0  0  0  0  0  0
   12.0698   11.5657    1.6856 H   0  0  0  0  0  0  0  0  0  0  0  0
   12.4269   13.9684    2.3868 H   0  0  0  0  0  0  0  0  0  0  0  0
   11.2606   13.7556    5.0305 H   0  0  0  0  0  0  0  0  0  0  0  0
   11.0361   15.0119    3.7663 H   0  0  0  0  0  0  0  0  0  0  0  0
   10.0023   13.5429    3.7663 H   0  0  0  0  0  0  0  0  0  0  0  0
  2  1  2  0
  3  2  1  0
  4  3  2  0
  5  4  1  0
  6  1  1  0
  6  5  2  0
  7  4  1  0
  8  7  1  0
  9  7  1  0
 10  7  1  0
 11  1  1  0
 12 11  1  0
 13 12  1  0
 15 14  1  0
 15 13  1  0
 16 15  1  0
  2 17  1  0
  3 18  1  0
  5 19  1  0
  6 20  1  0
  8 21  1  0
  8 22  1  0
  8 23  1  0
  9 24  1  0
  9 25  1  0
  9 26  1  0
 10 27  1  0
 10 28  1  0
 10 29  1  0
 11 30  1  0
 11 31  1  0
 12 32  1  0
 12 33  1  0
 13 34  1  0
 13 35  1  0
 14 36  1  0
 14 37  1  0
 14 38  1  0
 15 39  1  0
 16 40  1  0
 16 41  1  0
 16 42  1  0
M  CHG  1  12   1
M  END
$$$$
=
     RDKit          3D

 22 22  0  0  0  0  0  0  0  0999 V2000
   18.8920   15.4820    4.0940 C   0  0  1  0  0  0  0  0  0  0  0  0
   17.8030   14.4930    3.6340 C   0  0  0  0  0  0  0  0  0  0  0  0
   16.5290   14.9560    3.7110 N   0  0  0  0  0  0  0  0  0  0  0  0
   15.5640   14.0990    3.3100 C   0  0  0  0  0  0  0  0  0  0  0  0
   15.8190   12.8220    2.8660 C   0  0  0  0  0  0  0  0  0  0  0  0
   17.1400   12.4450    2.8510 C   0  0  0  0  0  0  0  0  0  0  0  0
   18.1470   13.2540    3.2390 N   0  0  0  0  0  0  0  0  0  0  0  0
   19.7160   14.8430    5.1630 N   0  0  0  0  0  4  0  0  0  0  0  0
   19.7270   15.9010    3.0200 O   0  0  0  0  0  0  0  0  0  0  0  0
   19.5580   17.2150    2.7060 C   0  0  0  0  0  0  0  0  0  0  0  0
   19.3830   17.6270    1.5710 O   0  0  0  0  0  0  0  0  0  0  0  0
   19.5730   18.0620    3.9400 C   0  0  0  0  0  0  0  0  0  0  0  0
   18.3916   16.3803    4.4846 H   0  0  0  0  0  0  0  0  0  0  0  0
   14.5189   14.4407    3.3402 H   0  0  0  0  0  0  0  0  0  0  0  0
   15.0148   12.1446    2.5429 H   0  0  0  0  0  0  0  0  0  0  0  0
   17.3893   11.4311    2.5047 H   0  0  0  0  0  0  0  0  0  0  0  0
   19.3561   15.1221    6.0868 H   0  0  0  0  0  0  0  0  0  0  0  0
   19.6647   13.8185    5.0697 H   0  0  0  0  0  0  0  0  0  0  0  0
   20.6955   15.1477    5.0697 H   0  0  0  0  0  0  0  0  0  0  0  0
   19.5615   17.4146    4.8292 H   0  0  0  0  0  0  0  0  0  0  0  0
   20.4822   18.6810    3.9488 H   0  0  0  0  0  0  0  0  0  0  0  0
   18.6862   18.7128    3.9488 H   0  0  0  0  0  0  0  0  0  0  0  0
  2  1  1  0
  3  2  2  0
  4  3  1  0
  5  4  2  0
  6  5  1  0
  7  6  2  0
  7  2  1  0
  8  1  1  0
  9  1  1  0
 10  9  1  0
 11 10  2  0
 12 10  1  0
  1 13  1  1
  4 14  1  0
  5 15  1  0
  6 16  1  0
  8 17  1  0
  8 18  1  0
  8 19  1  0
 12 20  1  0
 12 21  1  0
 12 22  1  0
M  CHG  1   8   1
M  END
$$$$
=
     RDKit          3D

 38 39  0  0  0  0  0  0  0  0999 V2000
   19.3780   17.4270    5.0640 C   0  0  0  0  0  0  0  0  0  0  0  0
   14.3030   14.6610    4.7590 C   0  0  0  0  0  0  0  0  0  0  0  0
   15.5590   15.5290    4.7410 C   0  0  0  0  0  0  0  0  0  0  0  0
   16.1120   15.7260    6.1640 C   0  0  0  0  0  0  0  0  0  0  0  0
   17.6270   15.9280    6.2140 C   0  0  0  0  0  0  0  0  0  0  0  0
   18.0710   16.6610    4.9590 N   0  0  0  0  0  4  0  0  0  0  0  0
   17.8640   15.8380    3.7010 C   0  0  0  0  0  0  0  0  0  0  0  0
   16.6290   14.9430    3.8170 C   0  0  0  0  0  0  0  0  0  0  0  0
   20.6700   16.8110    4.4200 C   0  0  2  0  0  0  0  0  0  0  0  0
   21.5770   16.0640    5.4030 C   0  0  0  0  0  0  0  0  0  0  0  0
   22.0130   16.9720    6.4150 O   0  0  0  0  0  0  0  0  0  0  0  0
   22.9310   17.9420    5.8770 C   0  0  0  0  0  0  0  0  0  0  0  0
   22.2510   18.8060    4.8060 C   0  0  0  0  0  0  0  0  0  0  0  0
   21.5380   17.9230    3.7910 N   0  0  0  0  0  4  0  0  0  0  0  0
   19.2170   18.4071    4.5912 H   0  0  0  0  0  0  0  0  0  0  0  0
   19.5960   17.4340    6.1422 H   0  0  0  0  0  0  0  0  0  0  0  0
   14.0114   14.4595    5.8003 H   0  0  0  0  0  0  0  0  0  0  0  0
   13.4857   15.1879    4.2448 H   0  0  0  0  0  0  0  0  0  0  0  0
   14.5070   13.7102    4.2448 H   0  0  0  0  0  0  0  0  0  0  0  0
   15.2767   16.5148    4.3430 H   0  0  0  0  0  0  0  0  0  0  0  0
   15.6293   16.6109    6.6044 H   0  0  0  0  0  0  0  0  0  0  0  0
   15.8926   14.8049    6.7238 H   0  0  0  0  0  0  0  0  0  0  0  0
   17.8905   16.5228    7.1010 H   0  0  0  0  0  0  0  0  0  0  0  0
   18.1301   14.9514    6.2712 H   0  0  0  0  0  0  0  0  0  0  0  0
   17.4160   17.4496    4.8590 H   0  0  0  0  0  0  0  0  0  0  0  0
   17.7345   16.5177    2.8459 H   0  0  0  0  0  0  0  0  0  0  0  0
   18.7453   15.1954    3.5586 H   0  0  0  0  0  0  0  0  0  0  0  0
   16.9392   13.9651    4.2138 H   0  0  0  0  0  0  0  0  0  0  0  0
   16.1882   14.8538    2.8132 H   0  0  0  0  0  0  0  0  0  0  0  0
   20.2896   16.0927    3.6788 H   0  0  0  0  0  0  0  0  0  0  0  0
   21.0179   15.2372    5.8654 H   0  0  0  0  0  0  0  0  0  0  0  0
   22.4480   15.6565    4.8689 H   0  0  0  0  0  0  0  0  0  0  0  0
   23.2866   18.5911    6.6908 H   0  0  0  0  0  0  0  0  0  0  0  0
   23.7742   17.4083    5.4142 H   0  0  0  0  0  0  0  0  0  0  0  0
   21.5184   19.4708    5.2870 H   0  0  0  0  0  0  0  0  0  0  0  0
   23.0163   19.4022    4.2874 H   0  0  0  0  0  0  0  0  0  0  0  0
   22.2493   17.4785    3.1932 H   0  0  0  0  0  0  0  0  0  0  0  0
   20.8993   18.5346    3.2630 H   0  0  0  0  0  0  0  0  0  0  0  0
  3  2  1  0
  4  3  1  0
  5  4  1  0
  6  5  1  0
  6  1  1  0
  7  6  1  0
  8  3  1  0
  8  7  1  0
  9  1  1  0
 10  9  1  0
 11 10  1  0
 12 11  1  0
 13 12  1  0
 14  9  1  0
 14 13  1  0
  1 15  1  0
  1 16  1  0
  2 17  1  0
  2 18  1  0
  2 19  1  0
  3 20  1  0
  4 21  1  0
  4 22  1  0
  5 23  1  0
  5 24  1  0
  6 25  1  0
  7 26  1  0
  7 27  1  0
  8 28  1  0
  8 29  1  0
  9 30  1  6
 10 31  1  0
 10 32  1  0
 12 33  1  0
 12 34  1  0
 13 35  1  0
 13 36  1  0
 14 37  1  0
 14 38  1  0
M  CHG  2   6   1  14   1
M  END
$$$$
=
     RDKit          3D

 47 47  0  0  0  0  0  0  0  0999 V2000
   14.7420   14.1120    3.4020 C   0  0  0  0  0  0  0  0  0  0  0  0
   14.6540   12.5960    3.5950 C   0  0  2  0  0  0  0  0  0  0  0  0
   15.0010   11.9060    2.3740 O   0  0  0  0  0  0  0  0  0  0  0  0
   13.2400   12.1410    3.9760 C   0  0  0  0  0  0  0  0  0  0  0  0
   12.5140   11.7530    2.7100 N   0  0  0  0  0  4  0  0  0  0  0  0
   11.2520   12.4510    2.3180 C   0  0  0  0  0  0  0  0  0  0  0  0
   10.1690   11.4570    1.9300 C   0  0  0  0  0  0  0  0  0  0  0  0
   10.8140   13.3960    3.4290 C   0  0  0  0  0  0  0  0  0  0  0  0
   15.1700   14.6510    4.6550 O   0  0  0  0  0  0  0  0  0  0  0  0
   16.3710   15.3010    4.6730 C   0  0  0  0  0  0  0  0  0  0  0  0
   16.4660   16.3290    5.6090 C   0  0  0  0  0  0  0  0  0  0  0  0
   17.6420   17.0740    5.7330 C   0  0  0  0  0  0  0  0  0  0  0  0
   18.7640   16.8140    4.9250 C   0  0  0  0  0  0  0  0  0  0  0  0
   18.6490   15.7740    3.9900 C   0  0  0  0  0  0  0  0  0  0  0  0
   17.4700   15.0240    3.8640 C   0  0  0  0  0  0  0  0  0  0  0  0
   20.0440   17.6540    5.0870 C   0  0  0  0  0  0  0  0  0  0  0  0
   20.7230   18.0220    3.7480 C   0  0  0  0  0  0  0  0  0  0  0  0
   19.7100   18.9770    5.8090 C   0  0  0  0  0  0  0  0  0  0  0  0
   21.0790   16.8660    5.9210 C   0  0  0  0  0  0  0  0  0  0  0  0
   15.4706   14.3542    2.6142 H   0  0  0  0  0  0  0  0  0  0  0  0
   13.7733   14.5332    3.0952 H   0  0  0  0  0  0  0  0  0  0  0  0
   15.3554   12.3533    4.4069 H   0  0  0  0  0  0  0  0  0  0  0  0
   15.4347   11.0437    2.5941 H   0  0  0  0  0  0  0  0  0  0  0  0
   13.2966   11.2760    4.6532 H   0  0  0  0  0  0  0  0  0  0  0  0
   12.7039   12.9533    4.4886 H   0  0  0  0  0  0  0  0  0  0  0  0
   13.1790   11.8872    1.9350 H   0  0  0  0  0  0  0  0  0  0  0  0
   12.1972   10.7932    2.9082 H   0  0  0  0  0  0  0  0  0  0  0  0
   11.4412   13.0598    1.4216 H   0  0  0  0  0  0  0  0  0  0  0  0
    9.7128   11.0383    2.8392 H   0  0  0  0  0  0  0  0  0  0  0  0
    9.3980   11.9684    1.3350 H   0  0  0  0  0  0  0  0  0  0  0  0
   10.6126   10.6451    1.3350 H   0  0  0  0  0  0  0  0  0  0  0  0
   11.0267   12.9371    4.4058 H   0  0  0  0  0  0  0  0  0  0  0  0
   11.3643   14.3444    3.3418 H   0  0  0  0  0  0  0  0  0  0  0  0
    9.7346   13.5891    3.3418 H   0  0  0  0  0  0  0  0  0  0  0  0
   15.6066   16.5564    6.2569 H   0  0  0  0  0  0  0  0  0  0  0  0
   17.6914   17.8812    6.4786 H   0  0  0  0  0  0  0  0  0  0  0  0
   19.5048   15.5409    3.3394 H   0  0  0  0  0  0  0  0  0  0  0  0
   17.4135   14.2133    3.1226 H   0  0  0  0  0  0  0  0  0  0  0  0
   21.6739   18.5374    3.9485 H   0  0  0  0  0  0  0  0  0  0  0  0
   20.9171   17.1056    3.1713 H   0  0  0  0  0  0  0  0  0  0  0  0
   20.0612   18.6849    3.1713 H   0  0  0  0  0  0  0  0  0  0  0  0
   19.7494   18.8209    6.8972 H   0  0  0  0  0  0  0  0  0  0  0  0
   20.4421   19.7462    5.5221 H   0  0  0  0  0  0  0  0  0  0  0  0
   18.7005   19.3065    5.5221 H   0  0  0  0  0  0  0  0  0  0  0  0
   20.8792   17.0181    6.9920 H   0  0  0  0  0  0  0  0  0  0  0  0
   21.0032   15.7949    5.6824 H   0  0  0  0  0  0  0  0  0  0  0  0
   22.0913   17.2241    5.6824 H   0  0  0  0  0  0  0  0  0  0  0  0
  2  1  1  0
  3  2  1  0
  4  2  1  0
  5  4  1  0
  6  5  1  0
  7  6  1  0
  8  6  1  0
  9  1  1  0
 10  9  1  0
 11 10  2  0
 12 11  1  0
 13 12  2  0
 14 13  1  0
 15 14  2  0
 15 10  1  0
 16 13  1  0
 17 16  1  0
 18 16  1  0
 19 16  1  0
  1 20  1  0
  1 21  1  0
  2 22  1  1
  3 23  1  0
  4 24  1  0
  4 25  1  0
  5 26  1  0
  5 27  1  0
  6 28  1  0
  7 29  1  0
  7 30  1  0
  7 31  1  0
  8 32  1  0
  8 33  1  0
  8 34  1  0
 11 35  1  0
 12 36  1  0
 14 37  1  0
 15 38  1  0
 17 39  1  0
 17 40  1  0
 17 41  1  0
 18 42  1  0
 18 43  1  0
 18 44  1  0
 19 45  1  0
 19 46  1  0
 19 47  1  0
M  CHG  1   5   1
M  END
$$$$
=
     RDKit          3D

 27 28  0  0  0  0  0  0  0  0999 V2000
   14.8900   14.2170    3.6770 C   0  0  0  0  0  0  0  0  0  0  0  0
   16.0520   14.9930    4.2340 C   0  0  0  0  0  0  0  0  0  0  0  0
   15.8220   16.0230    5.1590 C   0  0  0  0  0  0  0  0  0  0  0  0
   16.8780   16.7870    5.6750 C   0  0  0  0  0  0  0  0  0  0  0  0
   18.1790   16.5120    5.2400 C   0  0  0  0  0  0  0  0  0  0  0  0
   18.3880   15.4980    4.3120 C   0  0  0  0  0  0  0  0  0  0  0  0
   17.3550   14.7220    3.7810 C   0  0  0  0  0  0  0  0  0  0  0  0
   19.7440   15.4950    4.1000 N   0  0  0  0  0  0  0  0  0  0  0  0
   20.2930   16.4800    4.8830 C   0  0  0  0  0  0  0  0  0  0  0  0
   19.3700   17.1070    5.5870 N   0  0  0  0  0  0  0  0  0  0  0  0
   21.7470   16.7990    4.9570 C   0  0  1  0  0  0  0  0  0  0  0  0
   22.0140   18.2940    4.8810 C   0  0  0  0  0  0  0  0  0  0  0  0
   22.2470   16.3040    6.2710 N   0  0  0  0  0  4  0  0  0  0  0  0
   14.2874   13.8146    4.5046 H   0  0  0  0  0  0  0  0  0  0  0  0
   14.2676   14.8814    3.0595 H   0  0  0  0  0  0  0  0  0  0  0  0
   15.2652   13.3876    3.0595 H   0  0  0  0  0  0  0  0  0  0  0  0
   14.7932   16.2349    5.4855 H   0  0  0  0  0  0  0  0  0  0  0  0
   16.6877   17.5861    6.4066 H   0  0  0  0  0  0  0  0  0  0  0  0
   17.5525   13.9330    3.0404 H   0  0  0  0  0  0  0  0  0  0  0  0
   20.2579   14.8661    3.4666 H   0  0  0  0  0  0  0  0  0  0  0  0
   22.2534   16.3226    4.1046 H   0  0  0  0  0  0  0  0  0  0  0  0
   22.0875   18.7055    5.8985 H   0  0  0  0  0  0  0  0  0  0  0  0
   22.9580   18.4711    4.3448 H   0  0  0  0  0  0  0  0  0  0  0  0
   21.1897   18.7869    4.3448 H   0  0  0  0  0  0  0  0  0  0  0  0
   21.7538   16.7923    7.0321 H   0  0  0  0  0  0  0  0  0  0  0  0
   22.0747   15.2912    6.3445 H   0  0  0  0  0  0  0  0  0  0  0  0
   23.2580   16.4865    6.3445 H   0  0  0  0  0  0  0  0  0  0  0  0
  2  1  1  0
  3  2  2  0
  4  3  1  0
  5  4  2  0
  6  5  1  0
  7  2  1  0
  7  6  2  0
  8  6  1  0
  9  8  1  0
 10  9  2  0
 10  5  1  0
 11  9  1  0
 12 11  1  0
 13 11  1  0
  1 14  1  0
  1 15  1  0
  1 16  1  0
  3 17  1  0
  4 18  1  0
  7 19  1  0
  8 20  1  0
 11 21  1  6
 12 22  1  0
 12 23  1  0
 12 24  1  0
 13 25  1  0
 13 26  1  0
 13 27  1  0
M  CHG  1  13   1
M  END
$$$$
=
     RDKit          3D

 34 35  0  0  0  0  0  0  0  0999 V2000
   19.1190   16.5170    3.6170 C   0  0  2  0  0  0  0  0  0  0  0  0
   17.7470   16.7810    4.2000 C   0  0  2  0  0  0  0  0  0  0  0  0
   18.9330   16.6450    5.1190 C   0  0  1  0  0  0  0  0  0  0  0  0
   16.6070   15.7940    4.1820 C   0  0  0  0  0  0  0  0  0  0  0  0
   16.5920   14.7800    3.2060 C   0  0  0  0  0  0  0  0  0  0  0  0
   15.5760   13.8200    3.1530 C   0  0  0  0  0  0  0  0  0  0  0  0
   14.5450   13.8330    4.0920 C   0  0  0  0  0  0  0  0  0  0  0  0
   14.5380   14.8330    5.0650 C   0  0  0  0  0  0  0  0  0  0  0  0
   15.5600   15.7880    5.1160 C   0  0  0  0  0  0  0  0  0  0  0  0
   13.4290   12.8320    4.0170 C   0  0  0  0  0  0  0  0  0  0  0  0
   19.3400   15.0790    5.9530 S   0  0  0  0  0  6  0  0  0  0  0  0
   19.4380   14.1450    4.8500 O   0  0  0  0  0  0  0  0  0  0  0  0
   18.3740   14.8620    7.0090 O   0  0  0  0  0  0  0  0  0  0  0  0
   20.9530   15.3000    6.6500 C   0  0  0  0  0  0  0  0  0  0  0  0
   19.8710   17.5590    2.8760 C   0  0  0  0  0  0  0  0  0  0  0  0
   20.1010   17.1870    1.4640 N   0  0  0  0  0  4  0  0  0  0  0  0
   19.5289   15.7620    2.9300 H   0  0  0  0  0  0  0  0  0  0  0  0
   16.9717   17.5411    4.0239 H   0  0  0  0  0  0  0  0  0  0  0  0
   19.2583   17.2749    5.9601 H   0  0  0  0  0  0  0  0  0  0  0  0
   17.4026   14.7413    2.4635 H   0  0  0  0  0  0  0  0  0  0  0  0
   15.5903   13.0509    2.3667 H   0  0  0  0  0  0  0  0  0  0  0  0
   13.7205   14.8713    5.8000 H   0  0  0  0  0  0  0  0  0  0  0  0
   15.5419   16.5520    5.9072 H   0  0  0  0  0  0  0  0  0  0  0  0
   13.1178   12.5529    5.0345 H   0  0  0  0  0  0  0  0  0  0  0  0
   12.5760   13.2734    3.4808 H   0  0  0  0  0  0  0  0  0  0  0  0
   13.7754   11.9362    3.4808 H   0  0  0  0  0  0  0  0  0  0  0  0
   20.8826   15.2903    7.7477 H   0  0  0  0  0  0  0  0  0  0  0  0
   21.6111   14.4836    6.3176 H   0  0  0  0  0  0  0  0  0  0  0  0
   21.3672   16.2633    6.3176 H   0  0  0  0  0  0  0  0  0  0  0  0
   19.2979   18.4975    2.9058 H   0  0  0  0  0  0  0  0  0  0  0  0
   20.8530   17.6727    3.3585 H   0  0  0  0  0  0  0  0  0  0  0  0
   20.6422   16.3116    1.4234 H   0  0  0  0  0  0  0  0  0  0  0  0
   19.1952   17.0528    0.9924 H   0  0  0  0  0  0  0  0  0  0  0  0
   20.6258   17.9374    0.9924 H   0  0  0  0  0  0  0  0  0  0  0  0
  2  1  1  0
  3  2  1  0
  3  1  1  0
  4  2  1  0
  5  4  2  0
  6  5  1  0
  7  6  2  0
  8  7  1  0
  9  8  2  0
  9  4  1  0
 10  7  1  0
 11  3  1  0
 12 11  2  0
 13 11  2  0
 14 11  1  0
 15  1  1  0
 16 15  1  0
  1 17  1  1
  2 18  1  6
  3 19  1  1
  5 20  1  0
  6 21  1  0
  8 22  1  0
  9 23  1  0
 10 24  1  0
 10 25  1  0
 10 26  1  0
 14 27  1  0
 14 28  1  0
 14 29  1  0
 15 30  1  0
 15 31  1  0
 16 32  1  0
 16 33  1  0
 16 34  1  0
M  CHG  1  16   1
M  END
$$$$
=
     RDKit          3D

 60 60  0  0  0  0  0  0  0  0999 V2000
   26.0600   25.0160   14.3480 C   0  0  2  0  0  0  0  0  0  0  0  0
   26.5090   24.0720   13.2060 C   0  0  0  0  0  0  0  0  0  0  0  0
   25.5590   24.0310   12.0030 C   0  0  0  0  0  0  0  0  0  0  0  0
   25.0340   25.4040   11.5920 C   0  0  0  0  0  0  0  0  0  0  0  0
   24.4560   26.2160   12.7560 C   0  0  0  0  0  0  0  0  0  0  0  0
   24.5970   25.5030   14.1000 C   0  0  2  0  0  0  0  0  0  0  0  0
   24.0810   26.3240   15.1940 N   0  0  0  0  0  0  0  0  0  0  0  0
   23.1670   25.7920   16.0740 C   0  0  0  0  0  0  0  0  0  0  0  0
   22.6320   24.6950   15.8930 O   0  0  0  0  0  0  0  0  0  0  0  0
   22.9500   26.4760   17.4440 C   0  0  1  0  0  0  0  0  0  0  0  0
   24.0730   27.4670   17.5730 N   0  0  0  0  0  4  0  0  0  0  0  0
   21.5870   27.1430   17.7120 C   0  0  0  0  0  0  0  0  0  0  0  0
   20.9470   27.6110   16.3960 C   0  0  0  0  0  0  0  0  0  0  0  0
   20.5970   26.2030   18.4140 C   0  0  0  0  0  0  0  0  0  0  0  0
   27.0130   26.1320   14.6620 N   0  0  0  0  0  0  0  0  0  0  0  0
   27.2460   26.5000   15.9880 C   0  0  0  0  0  0  0  0  0  0  0  0
   26.6650   26.0190   16.9600 O   0  0  0  0  0  0  0  0  0  0  0  0
   28.9950   26.1900   13.1310 C   0  0  0  0  0  0  0  0  0  0  0  0
   27.6990   26.8560   13.5790 C   0  0  0  0  0  0  0  0  0  0  0  0
   28.1720   27.4850   16.0880 O   0  0  0  0  0  0  0  0  0  0  0  0
   29.4190   27.3340   16.8160 C   0  0  0  0  0  0  0  0  0  0  0  0
   30.4130   28.2450   16.0810 C   0  0  0  0  0  0  0  0  0  0  0  0
   29.2780   27.8210   18.2590 C   0  0  0  0  0  0  0  0  0  0  0  0
   29.9240   25.8890   16.7460 C   0  0  0  0  0  0  0  0  0  0  0  0
   26.0758   24.4175   15.2708 H   0  0  0  0  0  0  0  0  0  0  0  0
   27.4960   24.4054   12.8529 H   0  0  0  0  0  0  0  0  0  0  0  0
   26.5231   23.0562   13.6277 H   0  0  0  0  0  0  0  0  0  0  0  0
   26.0979   23.5948   11.1490 H   0  0  0  0  0  0  0  0  0  0  0  0
   24.6881   23.4283   12.3001 H   0  0  0  0  0  0  0  0  0  0  0  0
   25.8634   25.9745   11.1486 H   0  0  0  0  0  0  0  0  0  0  0  0
   24.2133   25.2344   10.8795 H   0  0  0  0  0  0  0  0  0  0  0  0
   24.9858   27.1784   12.8110 H   0  0  0  0  0  0  0  0  0  0  0  0
   23.3816   26.3534   12.5640 H   0  0  0  0  0  0  0  0  0  0  0  0
   23.9750   24.5964   14.0652 H   0  0  0  0  0  0  0  0  0  0  0  0
   24.4004   27.2968   15.3055 H   0  0  0  0  0  0  0  0  0  0  0  0
   22.9466   25.6839   18.2072 H   0  0  0  0  0  0  0  0  0  0  0  0
   24.2670   27.6382   18.5700 H   0  0  0  0  0  0  0  0  0  0  0  0
   24.9172   27.0903   17.1187 H   0  0  0  0  0  0  0  0  0  0  0  0
   23.8043   28.3515   17.1187 H   0  0  0  0  0  0  0  0  0  0  0  0
   21.7912   27.9978   18.3736 H   0  0  0  0  0  0  0  0  0  0  0  0
   20.0772   28.2470   16.6171 H   0  0  0  0  0  0  0  0  0  0  0  0
   21.6829   28.1855   15.8143 H   0  0  0  0  0  0  0  0  0  0  0  0
   20.6226   26.7355   15.8143 H   0  0  0  0  0  0  0  0  0  0  0  0
   20.7045   26.3050   19.5040 H   0  0  0  0  0  0  0  0  0  0  0  0
   19.5701   26.4665   18.1205 H   0  0  0  0  0  0  0  0  0  0  0  0
   20.8070   25.1639   18.1205 H   0  0  0  0  0  0  0  0  0  0  0  0
   29.5778   25.8905   14.0145 H   0  0  0  0  0  0  0  0  0  0  0  0
   28.7607   25.3006   12.5276 H   0  0  0  0  0  0  0  0  0  0  0  0
   29.5817   26.8983   12.5276 H   0  0  0  0  0  0  0  0  0  0  0  0
   27.0207   26.9152   12.7150 H   0  0  0  0  0  0  0  0  0  0  0  0
   27.9630   27.8499   13.9695 H   0  0  0  0  0  0  0  0  0  0  0  0
   31.0163   28.7979   16.8161 H   0  0  0  0  0  0  0  0  0  0  0  0
   31.0742   27.6327   15.4502 H   0  0  0  0  0  0  0  0  0  0  0  0
   29.8605   28.9570   15.4502 H   0  0  0  0  0  0  0  0  0  0  0  0
   29.5163   26.9979   18.9487 H   0  0  0  0  0  0  0  0  0  0  0  0
   29.9709   28.6575   18.4330 H   0  0  0  0  0  0  0  0  0  0  0  0
   28.2454   28.1579   18.4330 H   0  0  0  0  0  0  0  0  0  0  0  0
   30.0605   25.4985   17.7653 H   0  0  0  0  0  0  0  0  0  0  0  0
   29.1892   25.2693   16.2112 H   0  0  0  0  0  0  0  0  0  0  0  0
   30.8849   25.8619   16.2112 H   0  0  0  0  0  0  0  0  0  0  0  0
  2  1  1  0
  3  2  1  0
  4  3  1  0
  5  4  1  0
  6  5  1  0
  6  1  1  0
  7  6  1  0
  8  7  1  0
  9  8  2  0
 10  8  1  0
 11 10  1  0
 12 10  1  0
 13 12  1  0
 14 12  1  0
 15  1  1  0
 16 15  1  0
 17 16  2  0
 19 15  1  0
 19 18  1  0
 20 16  1  0
 21 20  1  0
 22 21  1  0
 23 21  1  0
 24 21  1  0
  1 25  1  1
  2 26  1  0
  2 27  1  0
  3 28  1  0
  3 29  1  0
  4 30  1  0
  4 31  1  0
  5 32  1  0
  5 33  1  0
  6 34  1  6
  7 35  1  0
 10 36  1  1
 11 37  1  0
 11 38  1  0
 11 39  1  0
 12 40  1  0
 13 41  1  0
 13 42  1  0
 13 43  1  0
 14 44  1  0
 14 45  1  0
 14 46  1  0
 18 47  1  0
 18 48  1  0
 18 49  1  0
 19 50  1  0
 19 51  1  0
 22 52  1  0
 22 53  1  0
 22 54  1  0
 23 55  1  0
 23 56  1  0
 23 57  1  0
 24 58  1  0
 24 59  1  0
 24 60  1  0
M  CHG  1  11   1
M  END
$$$$
=
     RDKit          3D

 35 36  0  0  0  0  0  0  0  0999 V2000
   17.9110   15.6690    3.9510 N   0  0  0  0  0  0  0  0  0  0  0  0
   19.0370   15.3820    4.6940 C   0  0  0  0  0  0  0  0  0  0  0  0
   19.0830   14.8450    5.8020 O   0  0  0  0  0  0  0  0  0  0  0  0
   20.3350   15.8730    4.0610 C   0  0  1  0  0  0  0  0  0  0  0  0
   20.1730   17.3100    3.5460 C   0  0  0  0  0  0  0  0  0  0  0  0
   20.0330   18.3300    4.6840 C   0  0  0  0  0  0  0  0  0  0  0  0
   21.1380   18.2020    5.7240 C   0  0  0  0  0  0  0  0  0  0  0  0
   21.2220   16.7920    6.1890 N   0  0  0  0  0  4  0  0  0  0  0  0
   21.4590   15.7950    5.0980 C   0  0  0  0  0  0  0  0  0  0  0  0
   15.9140   14.2720    3.8610 N   0  0  0  0  0  0  0  0  0  0  0  0
   14.6990   14.1270    4.4230 N   0  0  0  0  0  0  0  0  0  0  0  0
   14.6330   15.1170    5.3100 C   0  0  0  0  0  0  0  0  0  0  0  0
   15.8010   15.8990    5.3200 C   0  0  0  0  0  0  0  0  0  0  0  0
   16.6320   15.3350    4.3720 C   0  0  0  0  0  0  0  0  0  0  0  0
   15.1980   12.3460    2.4970 C   0  0  0  0  0  0  0  0  0  0  0  0
   16.3040   13.3340    2.8230 C   0  0  0  0  0  0  0  0  0  0  0  0
   18.0242   16.1505    3.0475 H   0  0  0  0  0  0  0  0  0  0  0  0
   20.5875   15.2337    3.2022 H   0  0  0  0  0  0  0  0  0  0  0  0
   21.0566   17.5710    2.9451 H   0  0  0  0  0  0  0  0  0  0  0  0
   19.2509   17.3485    2.9474 H   0  0  0  0  0  0  0  0  0  0  0  0
   20.0677   19.3426    4.2558 H   0  0  0  0  0  0  0  0  0  0  0  0
   19.0755   18.1360    5.1895 H   0  0  0  0  0  0  0  0  0  0  0  0
   22.0983   18.4981    5.2767 H   0  0  0  0  0  0  0  0  0  0  0  0
   20.9136   18.8567    6.5790 H   0  0  0  0  0  0  0  0  0  0  0  0
   21.9965   16.7210    6.8643 H   0  0  0  0  0  0  0  0  0  0  0  0
   20.3068   16.5635    6.6027 H   0  0  0  0  0  0  0  0  0  0  0  0
   21.4867   14.7834    5.5292 H   0  0  0  0  0  0  0  0  0  0  0  0
   22.4178   16.0190    4.6075 H   0  0  0  0  0  0  0  0  0  0  0  0
   13.7650   15.3019    5.9600 H   0  0  0  0  0  0  0  0  0  0  0  0
   16.0094   16.7760    5.9505 H   0  0  0  0  0  0  0  0  0  0  0  0
   14.7649   11.9591    3.4312 H   0  0  0  0  0  0  0  0  0  0  0  0
   14.4156   12.8514    1.9118 H   0  0  0  0  0  0  0  0  0  0  0  0
   15.6123   11.5118    1.9118 H   0  0  0  0  0  0  0  0  0  0  0  0
   17.1883   12.7758    3.1642 H   0  0  0  0  0  0  0  0  0  0  0  0
   16.5211   13.9103    1.9116 H   0  0  0  0  0  0  0  0  0  0  0  0
  2  1  1  0
  3  2  2  0
  4  2  1  0
  5  4  1  0
  6  5  1  0
  7  6  1  0
  8  7  1  0
  9  4  1  0
  9  8  1  0
 11 10  1  0
 12 11  2  0
 13 12  1  0
 14 13  2  0
 14 10  1  0
 14  1  1  0
 16 15  1  0
 16 10  1  0
  1 17  1  0
  4 18  1  6
  5 19  1  0
  5 20  1  0
  6 21  1  0
  6 22  1  0
  7 23  1  0
  7 24  1  0
  8 25  1  0
  8 26  1  0
  9 27  1  0
  9 28  1  0
 12 29  1  0
 13 30  1  0
 15 31  1  0
 15 32  1  0
 15 33  1  0
 16 34  1  0
 16 35  1  0
M  CHG  1   8   1
M  END
$$$$
=
     RDKit          3D

 29 30  0  0  0  0  0  0  0  0999 V2000
   18.2550   15.6220    5.9170 C   0  0  0  0  0  0  0  0  0  0  0  0
   19.3040   16.7080    2.8650 C   0  0  0  0  0  0  0  0  0  0  0  0
   19.7090   17.9120    3.7190 C   0  0  0  0  0  0  0  0  0  0  0  0
   19.4440   17.7140    5.2150 C   0  0  0  0  0  0  0  0  0  0  0  0
   19.6410   16.2510    5.6660 C   0  0  2  0  0  0  0  0  0  0  0  0
   20.4440   15.5170    4.5970 C   0  0  0  0  0  0  0  0  0  0  0  0
   19.6330   15.4290    3.4330 O   0  0  0  0  0  0  0  0  0  0  0  0
   17.1840   16.6560    6.0470 N   0  0  0  0  0  4  0  0  0  0  0  0
   16.0180   16.4250    5.1730 C   0  0  0  0  0  0  0  0  0  0  0  0
   16.0890   15.2610    4.2280 C   0  0  0  0  0  0  0  0  0  0  0  0
   15.2130   15.1890    5.4480 C   0  0  0  0  0  0  0  0  0  0  0  0
   18.0082   14.9596    5.0742 H   0  0  0  0  0  0  0  0  0  0  0  0
   18.3029   15.0629    6.8631 H   0  0  0  0  0  0  0  0  0  0  0  0
   18.2150   16.7458    2.7145 H   0  0  0  0  0  0  0  0  0  0  0  0
   19.8743   16.7869    1.9277 H   0  0  0  0  0  0  0  0  0  0  0  0
   20.7844   18.0945    3.5766 H   0  0  0  0  0  0  0  0  0  0  0  0
   19.0955   18.7639    3.3906 H   0  0  0  0  0  0  0  0  0  0  0  0
   20.1359   18.3535    5.7827 H   0  0  0  0  0  0  0  0  0  0  0  0
   18.3942   17.9819    5.4049 H   0  0  0  0  0  0  0  0  0  0  0  0
   20.2071   16.1844    6.6068 H   0  0  0  0  0  0  0  0  0  0  0  0
   21.3648   16.0747    4.3710 H   0  0  0  0  0  0  0  0  0  0  0  0
   20.7257   14.5131    4.9476 H   0  0  0  0  0  0  0  0  0  0  0  0
   16.8594   16.6651    7.0245 H   0  0  0  0  0  0  0  0  0  0  0  0
   17.5994   17.5534    5.7589 H   0  0  0  0  0  0  0  0  0  0  0  0
   15.7944   17.4965    5.0645 H   0  0  0  0  0  0  0  0  0  0  0  0
   15.6355   15.3352    3.2286 H   0  0  0  0  0  0  0  0  0  0  0  0
   16.8993   14.6428    3.8141 H   0  0  0  0  0  0  0  0  0  0  0  0
   14.1184   15.2103    5.3413 H   0  0  0  0  0  0  0  0  0  0  0  0
   15.1166   14.4961    6.2969 H   0  0  0  0  0  0  0  0  0  0  0  0
  3  2  1  0
  4  3  1  0
  5  1  1  0
  5  4  1  0
  6  5  1  0
  7  6  1  0
  7  2  1  0
  8  1  1  0
  9  8  1  0
 10  9  1  0
 11 10  1  0
 11  9  1  0
  1 12  1  0
  1 13  1  0
  2 14  1  0
  2 15  1  0
  3 16  1  0
  3 17  1  0
  4 18  1  0
  4 19  1  0
  5 20  1  1
  6 21  1  0
  6 22  1  0
  8 23  1  0
  8 24  1  0
  9 25  1  0
 10 26  1  0
 10 27  1  0
 11 28  1  0
 11 29  1  0
M  CHG  1   8   1
M  END
$$$$
=
     RDKit          3D

 39 40  0  0  0  0  0  0  0  0999 V2000
   15.6450   15.6520    4.5370 N   0  0  0  0  0  0  0  0  0  0  0  0
   16.1170   15.8630    5.8140 C   0  0  0  0  0  0  0  0  0  0  0  0
   15.8170   15.2230    6.8190 O   0  0  0  0  0  0  0  0  0  0  0  0
   15.2830   13.5860    3.3630 C   0  0  0  0  0  0  0  0  0  0  0  0
   14.4370   12.5790    2.8940 C   0  0  0  0  0  0  0  0  0  0  0  0
   13.0580   12.6650    3.1120 C   0  0  0  0  0  0  0  0  0  0  0  0
   12.5040   13.7670    3.7630 C   0  0  0  0  0  0  0  0  0  0  0  0
   13.3580   14.7450    4.2840 C   0  0  0  0  0  0  0  0  0  0  0  0
   14.7380   14.6780    4.0700 C   0  0  0  0  0  0  0  0  0  0  0  0
   11.1390   13.7810    4.0810 N   0  0  0  0  0  0  0  0  0  0  0  0
   17.2790   12.3730    2.8700 C   0  0  0  0  0  0  0  0  0  0  0  0
   16.6490   13.6050    3.2030 O   0  0  0  0  0  0  0  0  0  0  0  0
   17.1090   17.0270    5.9040 C   0  0  0  0  0  0  0  0  0  0  0  0
   18.0590   16.9890    4.8420 O   0  0  0  0  0  0  0  0  0  0  0  0
   19.3780   16.8980    5.1910 C   0  0  0  0  0  0  0  0  0  0  0  0
   19.6980   15.7840    5.9700 C   0  0  0  0  0  0  0  0  0  0  0  0
   21.0090   15.5640    6.3900 C   0  0  0  0  0  0  0  0  0  0  0  0
   22.0120   16.4650    6.0370 C   0  0  0  0  0  0  0  0  0  0  0  0
   21.7080   17.5940    5.2690 C   0  0  0  0  0  0  0  0  0  0  0  0
   20.3870   17.7980    4.8370 C   0  0  0  0  0  0  0  0  0  0  0  0
   22.7930   18.5460    4.8600 C   0  0  0  0  0  0  0  0  0  0  0  0
   16.0062   16.2981    3.8207 H   0  0  0  0  0  0  0  0  0  0  0  0
   14.8552   11.7175    2.3528 H   0  0  0  0  0  0  0  0  0  0  0  0
   12.4020   11.8529    2.7655 H   0  0  0  0  0  0  0  0  0  0  0  0
   12.9386   15.5767    4.8691 H   0  0  0  0  0  0  0  0  0  0  0  0
   10.7305   14.5952    4.5618 H   0  0  0  0  0  0  0  0  0  0  0  0
   10.5444   12.9771    3.8339 H   0  0  0  0  0  0  0  0  0  0  0  0
   17.5518   11.8396    3.7925 H   0  0  0  0  0  0  0  0  0  0  0  0
   16.5864   11.7547    2.2801 H   0  0  0  0  0  0  0  0  0  0  0  0
   18.1857   12.5725    2.2801 H   0  0  0  0  0  0  0  0  0  0  0  0
   16.5531   17.9748    5.8522 H   0  0  0  0  0  0  0  0  0  0  0  0
   17.6533   16.9429    6.8562 H   0  0  0  0  0  0  0  0  0  0  0  0
   18.9082   15.0734    6.2549 H   0  0  0  0  0  0  0  0  0  0  0  0
   21.2514   14.6807    6.9991 H   0  0  0  0  0  0  0  0  0  0  0  0
   23.0473   16.2876    6.3637 H   0  0  0  0  0  0  0  0  0  0  0  0
   20.1449   18.6727    4.2154 H   0  0  0  0  0  0  0  0  0  0  0  0
   23.2707   18.9651    5.7579 H   0  0  0  0  0  0  0  0  0  0  0  0
   23.5443   18.0103    4.2611 H   0  0  0  0  0  0  0  0  0  0  0  0
   22.3596   19.3605    4.2611 H   0  0  0  0  0  0  0  0  0  0  0  0
  2  1  1  0
  3  2  2  0
  5  4  2  0
  6  5  1  0
  7  6  2  0
  8  7  1  0
  9  8  2  0
  9  4  1  0
  9  1  1  0
 10  7  1  0
 12  4  1  0
 12 11  1  0
 13  2  1  0
 14 13  1  0
 15 14  1  0
 16 15  2  0
 17 16  1  0
 18 17  2  0
 19 18  1  0
 20 19  2  0
 20 15  1  0
 21 19  1  0
  1 22  1  0
  5 23  1  0
  6 24  1  0
  8 25  1  0
 10 26  1  0
 10 27  1  0
 11 28  1  0
 11 29  1  0
 11 30  1  0
 13 31  1  0
 13 32  1  0
 16 33  1  0
 17 34  1  0
 18 35  1  0
 20 36  1  0
 21 37  1  0
 21 38  1  0
 21 39  1  0
M  END
$$$$
=
     RDKit          3D

 39 40  0  0  0  0  0  0  0  0999 V2000
   19.6760   15.0650    3.1560 O   0  0  0  0  0  0  0  0  0  0  0  0
   19.3210   15.5510    4.2190 C   0  0  0  0  0  0  0  0  0  0  0  0
   18.0490   15.3760    4.7330 N   0  0  0  0  0  0  0  0  0  0  0  0
   17.6410   15.9340    6.0230 C   0  0  0  0  0  0  0  0  0  0  0  0
   16.1360   15.7770    6.2780 C   0  0  0  0  0  0  0  0  0  0  0  0
   15.3790   16.0420    5.0110 N   0  0  0  0  0  4  0  0  0  0  0  0
   15.7300   15.1130    3.8510 C   0  0  1  0  0  0  0  0  0  0  0  0
   17.1170   14.4630    4.0690 C   0  0  0  0  0  0  0  0  0  0  0  0
   14.6650   14.0920    3.6410 C   0  0  0  0  0  0  0  0  0  0  0  0
   14.6510   12.8200    3.1070 C   0  0  0  0  0  0  0  0  0  0  0  0
   13.3100   12.3720    3.1830 C   0  0  0  0  0  0  0  0  0  0  0  0
   12.5900   13.3950    3.7510 C   0  0  0  0  0  0  0  0  0  0  0  0
   13.4020   14.4490    4.0300 O   0  0  0  0  0  0  0  0  0  0  0  0
   20.0820   16.3280    5.0250 O   0  0  0  0  0  0  0  0  0  0  0  0
   20.5440   17.6350    4.5860 C   0  0  0  0  0  0  0  0  0  0  0  0
   22.0710   17.6700    4.4570 C   0  0  0  0  0  0  0  0  0  0  0  0
   19.8480   18.0640    3.2900 C   0  0  0  0  0  0  0  0  0  0  0  0
   20.1240   18.5930    5.7100 C   0  0  0  0  0  0  0  0  0  0  0  0
   18.1908   15.4153    6.8222 H   0  0  0  0  0  0  0  0  0  0  0  0
   17.8688   17.0101    6.0103 H   0  0  0  0  0  0  0  0  0  0  0  0
   15.9280   14.7527    6.6209 H   0  0  0  0  0  0  0  0  0  0  0  0
   15.8199   16.4955    7.0486 H   0  0  0  0  0  0  0  0  0  0  0  0
   14.3737   15.9400    5.2107 H   0  0  0  0  0  0  0  0  0  0  0  0
   15.6384   16.9925    4.7108 H   0  0  0  0  0  0  0  0  0  0  0  0
   15.7881   15.7143    2.9317 H   0  0  0  0  0  0  0  0  0  0  0  0
   16.9948   13.5645    4.6917 H   0  0  0  0  0  0  0  0  0  0  0  0
   17.5331   14.2084    3.0831 H   0  0  0  0  0  0  0  0  0  0  0  0
   15.5102   12.2647    2.7028 H   0  0  0  0  0  0  0  0  0  0  0  0
   12.9214   11.3974    2.8526 H   0  0  0  0  0  0  0  0  0  0  0  0
   11.5089   13.3654    3.9517 H   0  0  0  0  0  0  0  0  0  0  0  0
   22.5235   17.6804    5.4596 H   0  0  0  0  0  0  0  0  0  0  0  0
   22.4132   16.7795    3.9094 H   0  0  0  0  0  0  0  0  0  0  0  0
   22.3721   18.5753    3.9094 H   0  0  0  0  0  0  0  0  0  0  0  0
   18.9348   18.6269    3.5332 H   0  0  0  0  0  0  0  0  0  0  0  0
   20.5261   18.7011    2.7032 H   0  0  0  0  0  0  0  0  0  0  0  0
   19.5835   17.1720    2.7032 H   0  0  0  0  0  0  0  0  0  0  0  0
   20.3285   18.1265    6.6849 H   0  0  0  0  0  0  0  0  0  0  0  0
   20.6939   19.5301    5.6252 H   0  0  0  0  0  0  0  0  0  0  0  0
   19.0487   18.8088    5.6252 H   0  0  0  0  0  0  0  0  0  0  0  0
  2  1  2  0
  3  2  1  0
  4  3  1  0
  5  4  1  0
  6  5  1  0
  7  6  1  0
  8  7  1  0
  8  3  1  0
  9  7  1  0
 10  9  2  0
 11 10  1  0
 12 11  2  0
 13 12  1  0
 13  9  1  0
 14  2  1  0
 15 14  1  0
 16 15  1  0
 17 15  1  0
 18 15  1  0
  4 19  1  0
  4 20  1  0
  5 21  1  0
  5 22  1  0
  6 23  1  0
  6 24  1  0
  7 25  1  6
  8 26  1  0
  8 27  1  0
 10 28  1  0
 11 29  1  0
 12 30  1  0
 16 31  1  0
 16 32  1  0
 16 33  1  0
 17 34  1  0
 17 35  1  0
 17 36  1  0
 18 37  1  0
 18 38  1  0
 18 39  1  0
M  CHG  1   6   1
M  END
$$$$
=
     RDKit          3D

 80 81  0  0  0  0  0  0  0  0999 V2000
   22.4700   25.8060   15.3400 C   0  0  1  0  0  0  0  0  0  0  0  0
   22.5030   24.3200   14.9130 C   0  0  0  0  0  0  0  0  0  0  0  0
   23.5430   23.7370   14.6160 O   0  0  0  0  0  0  0  0  0  0  0  0
   21.2860   23.6830   15.0350 N   0  0  0  0  0  0  0  0  0  0  0  0
   21.1780   22.2320   14.9270 C   0  0  1  0  0  0  0  0  0  0  0  0
   21.5840   21.6090   16.2810 C   0  0  0  0  0  0  0  0  0  0  0  0
   20.8750   21.6130   17.2900 O   0  0  0  0  0  0  0  0  0  0  0  0
   22.7820   20.9520   16.2880 N   0  0  0  0  0  0  0  0  0  0  0  0
   19.7480   21.7840   14.5960 C   0  0  0  0  0  0  0  0  0  0  0  0
   19.4220   21.8880   13.1250 C   0  0  0  0  0  0  0  0  0  0  0  0
   20.4300   22.1580   12.1890 C   0  0  0  0  0  0  0  0  0  0  0  0
   20.1270   22.2540   10.8310 C   0  0  0  0  0  0  0  0  0  0  0  0
   18.8150   22.0830   10.3930 C   0  0  0  0  0  0  0  0  0  0  0  0
   17.8040   21.8160   11.3150 C   0  0  0  0  0  0  0  0  0  0  0  0
   18.1040   21.7200   12.6740 C   0  0  0  0  0  0  0  0  0  0  0  0
   24.4170   26.9540   16.2850 C   0  0  0  0  0  0  0  0  0  0  0  0
   23.6980   27.4000   17.1870 O   0  0  0  0  0  0  0  0  0  0  0  0
   23.8600   26.2660   15.2260 N   0  0  0  0  0  0  0  0  0  0  0  0
   25.9620   27.1320   16.3110 C   0  0  1  0  0  0  0  0  0  0  0  0
   26.4410   26.2200   15.2770 N   0  0  0  0  0  0  0  0  0  0  0  0
   27.1110   25.0550   15.5680 C   0  0  0  0  0  0  0  0  0  0  0  0
   27.4710   24.7440   16.6960 O   0  0  0  0  0  0  0  0  0  0  0  0
   27.4540   24.2050   14.3370 C   0  0  1  0  0  0  0  0  0  0  0  0
   27.8690   25.0160   13.1170 C   0  0  0  0  0  0  0  0  0  0  0  0
   28.8170   24.0920   12.3750 C   0  0  0  0  0  0  0  0  0  0  0  0
   29.6240   23.4460   13.4800 C   0  0  0  0  0  0  0  0  0  0  0  0
   28.6540   23.3000   14.5980 N   0  0  0  0  0  4  0  0  0  0  0  0
   26.4720   28.5460   15.9920 C   0  0  0  0  0  0  0  0  0  0  0  0
   27.9010   28.8170   16.4810 C   0  0  0  0  0  0  0  0  0  0  0  0
   29.2820   27.1660   17.5800 N   0  0  0  0  0  0  0  0  0  0  0  0
   28.3170   28.1130   17.7640 C   0  0  0  0  0  0  0  0  0  0  0  0
   27.9000   28.3620   18.8920 O   0  0  0  0  0  0  0  0  0  0  0  0
   21.5500   26.6410   14.4370 C   0  0  0  0  0  0  0  0  0  0  0  0
   22.3160   27.3050   13.2840 C   0  0  0  0  0  0  0  0  0  0  0  0
   22.2610   26.4810   12.0010 C   0  0  0  0  0  0  0  0  0  0  0  0
   23.5910   26.2460   11.4170 N   0  0  0  0  0  0  0  0  0  0  0  0
   24.1340   25.0430   11.1670 C   0  0  0  0  0  0  0  0  0  0  0  0
   23.4720   23.9050   11.3840 N   0  0  0  0  0  4  0  0  0  0  0  0
   25.3770   24.9740   10.6810 N   0  0  0  0  0  0  0  0  0  0  0  0
   22.0709   25.9185   16.3589 H   0  0  0  0  0  0  0  0  0  0  0  0
   20.4377   24.2418   15.2055 H   0  0  0  0  0  0  0  0  0  0  0  0
   21.8379   21.9000   14.1119 H   0  0  0  0  0  0  0  0  0  0  0  0
   23.1218   20.5098   17.1540 H   0  0  0  0  0  0  0  0  0  0  0  0
   23.3453   20.8990   15.4273 H   0  0  0  0  0  0  0  0  0  0  0  0
   19.6279   20.7361   14.9083 H   0  0  0  0  0  0  0  0  0  0  0  0
   19.0608   22.4542   15.1332 H   0  0  0  0  0  0  0  0  0  0  0  0
   21.4674   22.2951   12.5280 H   0  0  0  0  0  0  0  0  0  0  0  0
   20.9252   22.4651   10.1041 H   0  0  0  0  0  0  0  0  0  0  0  0
   18.5776   22.1586    9.3216 H   0  0  0  0  0  0  0  0  0  0  0  0
   16.7682   21.6808   10.9704 H   0  0  0  0  0  0  0  0  0  0  0  0
   17.3017   21.5112   13.3970 H   0  0  0  0  0  0  0  0  0  0  0  0
   24.4076   26.0792   14.3739 H   0  0  0  0  0  0  0  0  0  0  0  0
   26.3260   26.9344   17.3300 H   0  0  0  0  0  0  0  0  0  0  0  0
   26.2703   26.4586   14.2897 H   0  0  0  0  0  0  0  0  0  0  0  0
   26.5212   23.6545   14.1451 H   0  0  0  0  0  0  0  0  0  0  0  0
   26.9960   25.2635   12.4953 H   0  0  0  0  0  0  0  0  0  0  0  0
   28.3323   25.9777   13.3824 H   0  0  0  0  0  0  0  0  0  0  0  0
   28.2600   23.3359   11.8022 H   0  0  0  0  0  0  0  0  0  0  0  0
   29.4437   24.6220   11.6426 H   0  0  0  0  0  0  0  0  0  0  0  0
   30.0051   22.4641   13.1627 H   0  0  0  0  0  0  0  0  0  0  0  0
   30.5067   24.0392   13.7610 H   0  0  0  0  0  0  0  0  0  0  0  0
   28.3411   22.3205   14.6578 H   0  0  0  0  0  0  0  0  0  0  0  0
   29.1038   23.5664   15.4855 H   0  0  0  0  0  0  0  0  0  0  0  0
   26.4471   28.6852   14.9011 H   0  0  0  0  0  0  0  0  0  0  0  0
   25.8142   29.2498   16.5229 H   0  0  0  0  0  0  0  0  0  0  0  0
   28.5931   28.5023   15.6860 H   0  0  0  0  0  0  0  0  0  0  0  0
   27.9343   29.8921   16.7112 H   0  0  0  0  0  0  0  0  0  0  0  0
   29.6365   26.6289   18.3842 H   0  0  0  0  0  0  0  0  0  0  0  0
   29.6560   26.9883   16.6369 H   0  0  0  0  0  0  0  0  0  0  0  0
   20.7755   25.9834   14.0154 H   0  0  0  0  0  0  0  0  0  0  0  0
   21.1070   27.4385   15.0515 H   0  0  0  0  0  0  0  0  0  0  0  0
   21.8742   28.2933   13.0888 H   0  0  0  0  0  0  0  0  0  0  0  0
   23.3707   27.3884   13.5851 H   0  0  0  0  0  0  0  0  0  0  0  0
   21.7997   25.5084   12.2274 H   0  0  0  0  0  0  0  0  0  0  0  0
   21.6726   27.0505   11.2665 H   0  0  0  0  0  0  0  0  0  0  0  0
   24.1540   27.0752   11.1795 H   0  0  0  0  0  0  0  0  0  0  0  0
   23.9214   23.0009   11.1802 H   0  0  0  0  0  0  0  0  0  0  0  0
   22.5116   23.9307   11.7553 H   0  0  0  0  0  0  0  0  0  0  0  0
   25.8034   24.0570   10.4856 H   0  0  0  0  0  0  0  0  0  0  0  0
   25.9086   25.8378   10.5019 H   0  0  0  0  0  0  0  0  0  0  0  0
  2  1  1  0
  3  2  2  0
  4  2  1  0
  5  4  1  0
  6  5  1  0
  7  6  2  0
  8  6  1  0
  9  5  1  0
 10  9  1  0
 11 10  2  0
 12 11  1  0
 13 12  2  0
 14 13  1  0
 15 14  2  0
 15 10  1  0
 17 16  2  0
 18 16  1  0
 18  1  1  0
 19 16  1  0
 20 19  1  0
 21 20  1  0
 22 21  2  0
 23 21  1  0
 24 23  1  0
 25 24  1  0
 26 25  1  0
 27 26  1  0
 27 23  1  0
 28 19  1  0
 29 28  1  0
 31 30  1  0
 31 29  1  0
 32 31  2  0
 33  1  1  0
 34 33  1  0
 35 34  1  0
 36 35  1  0
 37 36  1  0
 38 37  2  3
 39 37  1  0
  1 40  1  1
  4 41  1  0
  5 42  1  6
  8 43  1  0
  8 44  1  0
  9 45  1  0
  9 46  1  0
 11 47  1  0
 12 48  1  0
 13 49  1  0
 14 50  1  0
 15 51  1  0
 18 52  1  0
 19 53  1  1
 20 54  1  0
 23 55  1  6
 24 56  1  0
 24 57  1  0
 25 58  1  0
 25 59  1  0
 26 60  1  0
 26 61  1  0
 27 62  1  0
 27 63  1  0
 28 64  1  0
 28 65  1  0
 29 66  1  0
 29 67  1  0
 30 68  1  0
 30 69  1  0
 33 70  1  0
 33 71  1  0
 34 72  1  0
 34 73  1  0
 35 74  1  0
 35 75  1  0
 36 76  1  0
 38 77  1  0
 38 78  1  0
 39 79  1  0
 39 80  1  0
M  CHG  2  27   1  38   1
M  END
$$$$
=
     RDKit          3D

 47 48  0  0  0  0  0  0  0  0999 V2000
   11.8470   13.0130    3.1680 C   0  0  0  0  0  0  0  0  0  0  0  0
   11.9690   14.1270    4.0030 C   0  0  0  0  0  0  0  0  0  0  0  0
   13.2330   14.5790    4.3970 C   0  0  0  0  0  0  0  0  0  0  0  0
   14.3970   13.9380    3.9620 C   0  0  0  0  0  0  0  0  0  0  0  0
   14.2810   12.8310    3.1250 C   0  0  0  0  0  0  0  0  0  0  0  0
   13.0160   12.3710    2.7330 C   0  0  0  0  0  0  0  0  0  0  0  0
   10.4860   12.5220    2.7290 C   0  0  0  0  0  0  0  0  0  0  0  0
   10.5390   11.2670    1.8560 C   0  0  0  0  0  0  0  0  0  0  0  0
    9.1720   10.7410    1.5950 N   0  0  0  0  0  4  0  0  0  0  0  0
   15.5520   14.5070    4.4170 O   0  0  0  0  0  0  0  0  0  0  0  0
   16.5520   14.9300    3.4870 C   0  0  0  0  0  0  0  0  0  0  0  0
   17.8080   14.0470    3.5710 C   0  0  0  0  0  0  0  0  0  0  0  0
   19.1050   14.8040    3.7650 N   0  0  0  0  0  4  0  0  0  0  0  0
   19.1130   16.2730    3.3990 C   0  0  0  0  0  0  0  0  0  0  0  0
   20.3290   16.7980    4.1520 C   0  0  2  0  0  0  0  0  0  0  0  0
   20.1880   16.0870    5.5020 C   0  0  1  0  0  0  0  0  0  0  0  0
   19.7800   14.6650    5.1210 C   0  0  0  0  0  0  0  0  0  0  0  0
   21.4510   16.1190    6.3500 C   0  0  0  0  0  0  0  0  0  0  0  0
   20.3370   18.3150    4.2480 C   0  0  0  0  0  0  0  0  0  0  0  0
   11.0670   14.6509    4.3521 H   0  0  0  0  0  0  0  0  0  0  0  0
   13.3124   15.4532    5.0600 H   0  0  0  0  0  0  0  0  0  0  0  0
   15.1856   12.3155    2.7700 H   0  0  0  0  0  0  0  0  0  0  0  0
   12.9389   11.4934    2.0744 H   0  0  0  0  0  0  0  0  0  0  0  0
    9.8918   12.2961    3.6267 H   0  0  0  0  0  0  0  0  0  0  0  0
   10.0369   13.3199    2.1193 H   0  0  0  0  0  0  0  0  0  0  0  0
   11.0179   11.5156    0.8974 H   0  0  0  0  0  0  0  0  0  0  0  0
   11.1161   10.4952    2.3864 H   0  0  0  0  0  0  0  0  0  0  0  0
    8.6975   10.5584    2.4908 H   0  0  0  0  0  0  0  0  0  0  0  0
    8.6340   11.4351    1.0568 H   0  0  0  0  0  0  0  0  0  0  0  0
    9.2380    9.8653    1.0568 H   0  0  0  0  0  0  0  0  0  0  0  0
   16.1409   14.8710    2.4684 H   0  0  0  0  0  0  0  0  0  0  0  0
   16.8387   15.9629    3.7339 H   0  0  0  0  0  0  0  0  0  0  0  0
   17.6848   13.3566    4.4184 H   0  0  0  0  0  0  0  0  0  0  0  0
   17.8911   13.5340    2.6015 H   0  0  0  0  0  0  0  0  0  0  0  0
   19.6553   14.2922    3.0606 H   0  0  0  0  0  0  0  0  0  0  0  0
   19.2282   16.4110    2.3138 H   0  0  0  0  0  0  0  0  0  0  0  0
   18.1795   16.7933    3.6596 H   0  0  0  0  0  0  0  0  0  0  0  0
   21.2921   16.5919    3.6622 H   0  0  0  0  0  0  0  0  0  0  0  0
   19.4512   16.5885    6.1467 H   0  0  0  0  0  0  0  0  0  0  0  0
   19.0799   14.2512    5.8617 H   0  0  0  0  0  0  0  0  0  0  0  0
   20.6409   13.9810    5.0879 H   0  0  0  0  0  0  0  0  0  0  0  0
   21.1776   16.1121    7.4154 H   0  0  0  0  0  0  0  0  0  0  0  0
   22.0670   15.2362    6.1238 H   0  0  0  0  0  0  0  0  0  0  0  0
   22.0215   17.0319    6.1238 H   0  0  0  0  0  0  0  0  0  0  0  0
   20.3386   18.6154    5.3062 H   0  0  0  0  0  0  0  0  0  0  0  0
   21.2372   18.7089    3.7536 H   0  0  0  0  0  0  0  0  0  0  0  0
   19.4410   18.7184    3.7536 H   0  0  0  0  0  0  0  0  0  0  0  0
  2  1  2  0
  3  2  1  0
  4  3  2  0
  5  4  1  0
  6  5  2  0
  6  1  1  0
  7  1  1  0
  8  7  1  0
  9  8  1  0
 10  4  1  0
 11 10  1  0
 12 11  1  0
 13 12  1  0
 14 13  1  0
 15 14  1  0
 16 15  1  0
 17 13  1  0
 17 16  1  0
 18 16  1  0
 19 15  1  0
  2 20  1  0
  3 21  1  0
  5 22  1  0
  6 23  1  0
  7 24  1  0
  7 25  1  0
  8 26  1  0
  8 27  1  0
  9 28  1  0
  9 29  1  0
  9 30  1  0
 11 31  1  0
 11 32  1  0
 12 33  1  0
 12 34  1  0
 13 35  1  0
 14 36  1  0
 14 37  1  0
 15 38  1  6
 16 39  1  1
 17 40  1  0
 17 41  1  0
 18 42  1  0
 18 43  1  0
 18 44  1  0
 19 45  1  0
 19 46  1  0
 19 47  1  0
M  CHG  2   9   1  13   1
M  END
$$$$
=
     RDKit          3D

 39 40  0  0  0  0  0  0  0  0999 V2000
   11.9790   13.8270    3.8930 C   0  0  0  0  0  0  0  0  0  0  0  0
   12.8070   14.7830    4.4480 C   0  0  0  0  0  0  0  0  0  0  0  0
   14.1490   14.7930    4.3070 N   0  0  0  0  0  0  0  0  0  0  0  0
   14.6700   13.8000    3.5730 C   0  0  0  0  0  0  0  0  0  0  0  0
   13.9490   12.8380    2.9780 N   0  0  0  0  0  0  0  0  0  0  0  0
   12.6140   12.8450    3.1460 C   0  0  0  0  0  0  0  0  0  0  0  0
   11.9270   11.8480    2.4390 N   0  0  0  0  0  0  0  0  0  0  0  0
   10.5330   13.9430    4.1450 C   0  0  0  0  0  0  0  0  0  0  0  0
    9.7310   14.2420    3.2750 O   0  0  0  0  0  0  0  0  0  0  0  0
   10.2380   13.7180    5.4500 O   0  0  0  0  0  0  0  0  0  0  0  0
    8.1630   12.6900    6.0370 C   0  0  0  0  0  0  0  0  0  0  0  0
    8.8780   14.0070    5.8060 C   0  0  0  0  0  0  0  0  0  0  0  0
   16.4240   13.7500    3.3180 S   0  0  0  0  0  0  0  0  0  0  0  0
   16.8990   15.2910    4.1610 C   0  0  0  0  0  0  0  0  0  0  0  0
   18.3870   15.5710    4.0050 C   0  0  0  0  0  0  0  0  0  0  0  0
   19.0990   14.8070    3.3580 O   0  0  0  0  0  0  0  0  0  0  0  0
   18.8210   16.6770    4.7110 N   0  0  0  0  0  0  0  0  0  0  0  0
   20.1360   17.1740    4.8280 C   0  0  0  0  0  0  0  0  0  0  0  0
   20.6780   18.1740    4.0210 C   0  0  0  0  0  0  0  0  0  0  0  0
   21.9990   18.5990    4.2150 C   0  0  0  0  0  0  0  0  0  0  0  0
   22.7880   18.0280    5.2150 C   0  0  0  0  0  0  0  0  0  0  0  0
   22.2580   17.0280    6.0250 C   0  0  0  0  0  0  0  0  0  0  0  0
   20.9450   16.6110    5.8250 C   0  0  0  0  0  0  0  0  0  0  0  0
   20.4470   15.6430    6.6110 F   0  0  0  0  0  0  0  0  0  0  0  0
   12.3442   15.5854    5.0413 H   0  0  0  0  0  0  0  0  0  0  0  0
   10.9017   11.7800    2.5099 H   0  0  0  0  0  0  0  0  0  0  0  0
   12.4476   11.1836    1.8488 H   0  0  0  0  0  0  0  0  0  0  0  0
    8.0655   12.5104    7.1178 H   0  0  0  0  0  0  0  0  0  0  0  0
    7.1631   12.7306    5.5804 H   0  0  0  0  0  0  0  0  0  0  0  0
    8.7417   11.8736    5.5804 H   0  0  0  0  0  0  0  0  0  0  0  0
    8.3882   14.5594    4.9906 H   0  0  0  0  0  0  0  0  0  0  0  0
    8.8445   14.6242    6.7159 H   0  0  0  0  0  0  0  0  0  0  0  0
   16.3298   16.1266    3.7276 H   0  0  0  0  0  0  0  0  0  0  0  0
   16.6766   15.1830    5.2329 H   0  0  0  0  0  0  0  0  0  0  0  0
   18.0935   17.2042    5.2146 H   0  0  0  0  0  0  0  0  0  0  0  0
   20.0661   18.6308    3.2292 H   0  0  0  0  0  0  0  0  0  0  0  0
   22.4177   19.3889    3.5741 H   0  0  0  0  0  0  0  0  0  0  0  0
   23.8241   18.3669    5.3622 H   0  0  0  0  0  0  0  0  0  0  0  0
   22.8710   16.5713    6.8160 H   0  0  0  0  0  0  0  0  0  0  0  0
  2  1  2  0
  3  2  1  0
  4  3  2  0
  5  4  1  0
  6  5  2  0
  6  1  1  0
  7  6  1  0
  8  1  1  0
  9  8  2  0
 10  8  1  0
 12 11  1  0
 12 10  1  0
 13  4  1  0
 14 13  1  0
 15 14  1  0
 16 15  2  0
 17 15  1  0
 18 17  1  0
 19 18  2  0
 20 19  1  0
 21 20  2  0
 22 21  1  0
 23 18  1  0
 23 22  2  0
 24 23  1  0
  2 25  1  0
  7 26  1  0
  7 27  1  0
 11 28  1  0
 11 29  1  0
 11 30  1  0
 12 31  1  0
 12 32  1  0
 14 33  1  0
 14 34  1  0
 17 35  1  0
 19 36  1  0
 20 37  1  0
 21 38  1  0
 22 39  1  0
M  END
$$$$
=
     RDKit          3D

 20 20  0  0  0  0  0  0  0  0999 V2000
   19.3730   17.8970    5.0440 C   0  0  0  0  0  0  0  0  0  0  0  0
   20.4910   18.2240    5.5970 N   0  0  0  0  0  0  0  0  0  0  0  0
   21.5740   18.4190    4.7780 C   0  0  0  0  0  0  0  0  0  0  0  0
   21.5040   18.2510    3.4470 C   0  0  0  0  0  0  0  0  0  0  0  0
   20.2230   17.8640    2.8430 C   0  0  0  0  0  0  0  0  0  0  0  0
   20.1120   17.6850    1.6350 O   0  0  0  0  0  0  0  0  0  0  0  0
   19.1970   17.7160    3.7150 N   0  0  0  0  0  0  0  0  0  0  0  0
   22.7660   18.7850    5.3600 N   0  0  0  0  0  0  0  0  0  0  0  0
   18.2270   17.6810    5.7300 O   0  0  0  0  0  0  0  0  0  0  0  0
   16.6820   15.9360    6.3970 C   0  0  0  0  0  0  0  0  0  0  0  0
   17.3330   16.6670    5.2380 C   0  0  0  0  0  0  0  0  0  0  0  0
   22.3941   18.4013    2.8184 H   0  0  0  0  0  0  0  0  0  0  0  0
   18.2647   17.4607    3.3592 H   0  0  0  0  0  0  0  0  0  0  0  0
   23.5991   18.9395    4.7743 H   0  0  0  0  0  0  0  0  0  0  0  0
   22.8252   18.9044    6.3813 H   0  0  0  0  0  0  0  0  0  0  0  0
   17.0516   16.3510    7.3463 H   0  0  0  0  0  0  0  0  0  0  0  0
   15.5905   16.0608    6.3425 H   0  0  0  0  0  0  0  0  0  0  0  0
   16.9319   14.8661    6.3425 H   0  0  0  0  0  0  0  0  0  0  0  0
   17.8993   15.9485    4.6272 H   0  0  0  0  0  0  0  0  0  0  0  0
   16.5506   17.1430    4.6287 H   0  0  0  0  0  0  0  0  0  0  0  0
  2  1  2  0
  3  2  1  0
  4  3  2  0
  5  4  1  0
  6  5  2  0
  7  5  1  0
  7  1  1  0
  8  3  1  0
  9  1  1  0
 11 10  1  0
 11  9  1  0
  4 12  1  0
  7 13  1  0
  8 14  1  0
  8 15  1  0
 10 16  1  0
 10 17  1  0
 10 18  1  0
 11 19  1  0
 11 20  1  0
M  END
$$$$
=
     RDKit          3D

 47 48  0  0  0  0  0  0  0  0999 V2000
   17.9550   16.2790    5.0820 C   0  0  1  0  0  0  0  0  0  0  0  0
   18.7130   17.6200    4.7590 C   0  0  2  0  0  0  0  0  0  0  0  0
   19.0890   17.7670    3.2770 C   0  0  0  0  0  0  0  0  0  0  0  0
   20.4150   17.1300    2.8760 C   0  0  0  0  0  0  0  0  0  0  0  0
   21.1860   16.6980    3.9930 O   0  0  0  0  0  0  0  0  0  0  0  0
   21.3040   17.6670    5.0420 C   0  0  0  0  0  0  0  0  0  0  0  0
   19.9170   17.9200    5.6770 C   0  0  0  0  0  0  0  0  0  0  0  0
   21.9520   18.9700    4.5440 C   0  0  0  0  0  0  0  0  0  0  0  0
   22.2440   17.0450    6.0850 C   0  0  0  0  0  0  0  0  0  0  0  0
   18.4220   15.6280    6.4060 C   0  0  0  0  0  0  0  0  0  0  0  0
   19.4680   14.5300    6.2490 C   0  0  0  0  0  0  0  0  0  0  0  0
   19.5890   14.1980    4.8060 N   0  0  0  0  0  4  0  0  0  0  0  0
   16.4090   16.4510    5.0670 C   0  0  0  0  0  0  0  0  0  0  0  0
   15.6460   15.3050    4.4510 C   0  0  0  0  0  0  0  0  0  0  0  0
   16.2630   14.4680    3.5100 C   0  0  0  0  0  0  0  0  0  0  0  0
   15.5600   13.4050    2.9410 C   0  0  0  0  0  0  0  0  0  0  0  0
   14.2360   13.1700    3.3030 C   0  0  0  0  0  0  0  0  0  0  0  0
   13.6120   13.9970    4.2330 C   0  0  0  0  0  0  0  0  0  0  0  0
   14.3120   15.0610    4.8040 C   0  0  0  0  0  0  0  0  0  0  0  0
   18.2226   15.5900    4.2674 H   0  0  0  0  0  0  0  0  0  0  0  0
   17.9649   18.3938    4.9860 H   0  0  0  0  0  0  0  0  0  0  0  0
   18.2931   17.3022    2.6765 H   0  0  0  0  0  0  0  0  0  0  0  0
   19.2028   18.8462    3.0972 H   0  0  0  0  0  0  0  0  0  0  0  0
   20.2064   16.2596    2.2366 H   0  0  0  0  0  0  0  0  0  0  0  0
   21.0016   17.8965    2.3484 H   0  0  0  0  0  0  0  0  0  0  0  0
   19.8305   17.2852    6.5711 H   0  0  0  0  0  0  0  0  0  0  0  0
   19.8729   18.9965    5.8987 H   0  0  0  0  0  0  0  0  0  0  0  0
   22.2560   19.5813    5.4065 H   0  0  0  0  0  0  0  0  0  0  0  0
   22.8359   18.7304    3.9347 H   0  0  0  0  0  0  0  0  0  0  0  0
   21.2275   19.5302    3.9347 H   0  0  0  0  0  0  0  0  0  0  0  0
   21.8810   17.2852    7.0952 H   0  0  0  0  0  0  0  0  0  0  0  0
   22.2665   15.9531    5.9534 H   0  0  0  0  0  0  0  0  0  0  0  0
   23.2578   17.4512    5.9534 H   0  0  0  0  0  0  0  0  0  0  0  0
   18.8483   16.4172    7.0428 H   0  0  0  0  0  0  0  0  0  0  0  0
   17.5342   15.1473    6.8427 H   0  0  0  0  0  0  0  0  0  0  0  0
   20.4371   14.8832    6.6311 H   0  0  0  0  0  0  0  0  0  0  0  0
   19.1665   13.6378    6.8173 H   0  0  0  0  0  0  0  0  0  0  0  0
   19.9399   13.2351    4.7035 H   0  0  0  0  0  0  0  0  0  0  0  0
   18.6653   14.2764    4.3570 H   0  0  0  0  0  0  0  0  0  0  0  0
   20.2456   14.8524    4.3570 H   0  0  0  0  0  0  0  0  0  0  0  0
   16.0686   16.5680    6.1064 H   0  0  0  0  0  0  0  0  0  0  0  0
   16.2036   17.3301    4.4385 H   0  0  0  0  0  0  0  0  0  0  0  0
   17.3078   14.6505    3.2185 H   0  0  0  0  0  0  0  0  0  0  0  0
   16.0525   12.7519    2.2055 H   0  0  0  0  0  0  0  0  0  0  0  0
   13.6834   12.3313    2.8543 H   0  0  0  0  0  0  0  0  0  0  0  0
   12.5659   13.8116    4.5182 H   0  0  0  0  0  0  0  0  0  0  0  0
   13.8130   15.7127    5.5363 H   0  0  0  0  0  0  0  0  0  0  0  0
  2  1  1  0
  3  2  1  0
  4  3  1  0
  5  4  1  0
  6  5  1  0
  7  6  1  0
  7  2  1  0
  8  6  1  0
  9  6  1  0
 10  1  1  0
 11 10  1  0
 12 11  1  0
 13  1  1  0
 14 13  1  0
 15 14  2  0
 16 15  1  0
 17 16  2  0
 18 17  1  0
 19 18  2  0
 19 14  1  0
  1 20  1  6
  2 21  1  1
  3 22  1  0
  3 23  1  0
  4 24  1  0
  4 25  1  0
  7 26  1  0
  7 27  1  0
  8 28  1  0
  8 29  1  0
  8 30  1  0
  9 31  1  0
  9 32  1  0
  9 33  1  0
 10 34  1  0
 10 35  1  0
 11 36  1  0
 11 37  1  0
 12 38  1  0
 12 39  1  0
 12 40  1  0
 13 41  1  0
 13 42  1  0
 15 43  1  0
 16 44  1  0
 17 45  1  0
 18 46  1  0
 19 47  1  0
M  CHG  1  12   1
M  END
$$$$
=
     RDKit          3D

 40 41  0  0  0  0  0  0  0  0999 V2000
   18.0140   15.0340    4.7490 N   0  0  0  0  0  4  0  0  0  0  0  0
   16.8750   15.3670    3.8410 C   0  0  0  0  0  0  0  0  0  0  0  0
   14.3570   12.7580    3.3890 N   0  0  0  0  0  0  0  0  0  0  0  0
   15.3930   12.1360    2.8050 N   0  0  0  0  0  0  0  0  0  0  0  0
   16.4100   12.9820    2.9450 C   0  0  0  0  0  0  0  0  0  0  0  0
   16.0210   14.1940    3.5590 C   0  0  0  0  0  0  0  0  0  0  0  0
   14.6760   14.0160    3.8280 C   0  0  0  0  0  0  0  0  0  0  0  0
   13.0640   12.1030    3.4680 C   0  0  0  0  0  0  0  0  0  0  0  0
   10.8810   11.8510    2.1850 C   0  0  0  0  0  0  0  0  0  0  0  0
   11.9810   12.7970    2.6420 C   0  0  0  0  0  0  0  0  0  0  0  0
   19.3480   14.8590    4.0990 C   0  0  0  0  0  0  0  0  0  0  0  0
   20.2360   16.0240    4.2820 C   0  0  0  0  0  0  0  0  0  0  0  0
   20.3370   17.2010    3.4850 C   0  0  0  0  0  0  0  0  0  0  0  0
   19.5850   17.5560    2.2530 C   0  0  0  0  0  0  0  0  0  0  0  0
   21.2470   18.0520    3.9710 N   0  0  0  0  0  0  0  0  0  0  0  0
   21.7750   17.4160    5.0320 N   0  0  0  0  0  0  0  0  0  0  0  0
   21.1820   16.2150    5.2620 C   0  0  0  0  0  0  0  0  0  0  0  0
   21.4540   15.3650    6.2600 F   0  0  0  0  0  0  0  0  0  0  0  0
   22.8400   18.0270    5.7870 C   0  0  0  0  0  0  0  0  0  0  0  0
   18.0982   15.7941    5.4390 H   0  0  0  0  0  0  0  0  0  0  0  0
   17.7831   14.1159    5.1547 H   0  0  0  0  0  0  0  0  0  0  0  0
   16.2604   16.1461    4.3156 H   0  0  0  0  0  0  0  0  0  0  0  0
   17.2963   15.7139    2.8859 H   0  0  0  0  0  0  0  0  0  0  0  0
   17.4377   12.7629    2.6196 H   0  0  0  0  0  0  0  0  0  0  0  0
   13.9970   14.7409    4.3007 H   0  0  0  0  0  0  0  0  0  0  0  0
   13.1730   11.0709    3.1034 H   0  0  0  0  0  0  0  0  0  0  0  0
   12.7444   12.1405    4.5199 H   0  0  0  0  0  0  0  0  0  0  0  0
   10.3796   11.4198    3.0640 H   0  0  0  0  0  0  0  0  0  0  0  0
   10.1483   12.4055    1.5802 H   0  0  0  0  0  0  0  0  0  0  0  0
   11.3196   11.0436    1.5802 H   0  0  0  0  0  0  0  0  0  0  0  0
   12.4508   13.2431    1.7530 H   0  0  0  0  0  0  0  0  0  0  0  0
   11.5137   13.5566    3.2859 H   0  0  0  0  0  0  0  0  0  0  0  0
   19.8363   13.9743    4.5336 H   0  0  0  0  0  0  0  0  0  0  0  0
   19.1751   14.7435    3.0188 H   0  0  0  0  0  0  0  0  0  0  0  0
   18.6222   18.0105    2.5293 H   0  0  0  0  0  0  0  0  0  0  0  0
   20.1716   18.2723    1.6590 H   0  0  0  0  0  0  0  0  0  0  0  0
   19.4047   16.6479    1.6590 H   0  0  0  0  0  0  0  0  0  0  0  0
   22.6397   17.9121    6.8625 H   0  0  0  0  0  0  0  0  0  0  0  0
   23.7935   17.5386    5.5373 H   0  0  0  0  0  0  0  0  0  0  0  0
   22.8996   19.0966    5.5373 H   0  0  0  0  0  0  0  0  0  0  0  0
  2  1  1  0
  4  3  1  0
  5  4  2  0
  6  5  1  0
  6  2  1  0
  7  6  2  0
  7  3  1  0
  8  3  1  0
 10  9  1  0
 10  8  1  0
 11  1  1  0
 12 11  1  0
 13 12  1  0
 14 13  1  0
 15 13  2  0
 16 15  1  0
 17 12  2  0
 17 16  1  0
 18 17  1  0
 19 16  1  0
  1 20  1  0
  1 21  1  0
  2 22  1  0
  2 23  1  0
  5 24  1  0
  7 25  1  0
  8 26  1  0
  8 27  1  0
  9 28  1  0
  9 29  1  0
  9 30  1  0
 10 31  1  0
 10 32  1  0
 11 33  1  0
 11 34  1  0
 14 35  1  0
 14 36  1  0
 14 37  1  0
 19 38  1  0
 19 39  1  0
 19 40  1  0
M  CHG  1   1   1
M  END
$$$$
=
     RDKit          3D

 24 25  0  0  0  0  0  0  0  0999 V2000
   13.8460   12.7550    3.2330 C   0  0  0  0  0  0  0  0  0  0  0  0
   15.0640   12.3610    2.6500 C   0  0  0  0  0  0  0  0  0  0  0  0
   16.2360   13.1050    2.8270 C   0  0  0  0  0  0  0  0  0  0  0  0
   16.1700   14.2660    3.5790 C   0  0  0  0  0  0  0  0  0  0  0  0
   14.9510   14.6940    4.1170 C   0  0  0  0  0  0  0  0  0  0  0  0
   13.7870   13.9650    3.9300 C   0  0  0  0  0  0  0  0  0  0  0  0
   15.0950   16.0200    4.8010 C   0  0  0  0  0  0  0  0  0  0  0  0
   16.6120   16.0630    5.0350 C   0  0  0  0  0  0  0  0  0  0  0  0
   17.2420   15.2630    3.8820 C   0  0  1  0  0  0  0  0  0  0  0  0
   18.5080   14.6540    4.3290 N   0  0  0  0  0  4  0  0  0  0  0  0
   12.6710   12.0690    2.9200 N   0  0  0  0  0  0  0  0  0  0  0  0
   15.0960   11.4460    2.0403 H   0  0  0  0  0  0  0  0  0  0  0  0
   17.1857   12.7759    2.3801 H   0  0  0  0  0  0  0  0  0  0  0  0
   12.8291   14.3341    4.3251 H   0  0  0  0  0  0  0  0  0  0  0  0
   14.7618   16.8462    4.1557 H   0  0  0  0  0  0  0  0  0  0  0  0
   14.4912   16.1282    5.7141 H   0  0  0  0  0  0  0  0  0  0  0  0
   16.9717   17.1024    5.0202 H   0  0  0  0  0  0  0  0  0  0  0  0
   16.8808   15.6387    6.0136 H   0  0  0  0  0  0  0  0  0  0  0  0
   17.5219   15.8482    2.9936 H   0  0  0  0  0  0  0  0  0  0  0  0
   18.5375   14.6398    5.3585 H   0  0  0  0  0  0  0  0  0  0  0  0
   18.5709   13.6905    3.9704 H   0  0  0  0  0  0  0  0  0  0  0  0
   19.3001   15.2062    3.9704 H   0  0  0  0  0  0  0  0  0  0  0  0
   11.7781   12.3559    3.3458 H   0  0  0  0  0  0  0  0  0  0  0  0
   12.6970   11.2760    2.2633 H   0  0  0  0  0  0  0  0  0  0  0  0
  2  1  2  0
  3  2  1  0
  4  3  2  0
  5  4  1  0
  6  5  2  0
  6  1  1  0
  7  5  1  0
  8  7  1  0
  9  4  1  0
  9  8  1  0
 10  9  1  0
 11  1  1  0
  2 12  1  0
  3 13  1  0
  6 14  1  0
  7 15  1  0
  7 16  1  0
  8 17  1  0
  8 18  1  0
  9 19  1  6
 10 20  1  0
 10 21  1  0
 10 22  1  0
 11 23  1  0
 11 24  1  0
M  CHG  1  10   1
M  END
$$$$
=
     RDKit          3D

 18 18  0  0  0  0  0  0  0  0999 V2000
   15.0230   15.8970    4.5880 C   0  0  0  0  0  0  0  0  0  0  0  0
   14.9230   14.3900    4.4390 C   0  0  2  0  0  0  0  0  0  0  0  0
   15.8960   13.9300    3.4970 O   0  0  0  0  0  0  0  0  0  0  0  0
   15.4000   12.8680    2.8130 C   0  0  0  0  0  0  0  0  0  0  0  0
   16.0550   12.0750    2.1570 O   0  0  0  0  0  0  0  0  0  0  0  0
   13.9280   12.7000    3.0950 C   0  0  2  0  0  0  0  0  0  0  0  0
   13.5820   13.9280    3.9010 C   0  0  0  0  0  0  0  0  0  0  0  0
   13.6580   11.4350    3.8510 N   0  0  0  0  0  4  0  0  0  0  0  0
   15.0404   16.1595    5.6561 H   0  0  0  0  0  0  0  0  0  0  0  0
   15.9467   16.2524    4.1080 H   0  0  0  0  0  0  0  0  0  0  0  0
   14.1544   16.3714    4.1080 H   0  0  0  0  0  0  0  0  0  0  0  0
   15.0753   13.9847    5.4502 H   0  0  0  0  0  0  0  0  0  0  0  0
   13.3207   12.6134    2.1820 H   0  0  0  0  0  0  0  0  0  0  0  0
   13.1269   14.7007    3.2640 H   0  0  0  0  0  0  0  0  0  0  0  0
   12.8490   13.7255    4.6958 H   0  0  0  0  0  0  0  0  0  0  0  0
   13.6984   11.6243    4.8626 H   0  0  0  0  0  0  0  0  0  0  0  0
   12.7225   11.0810    3.6050 H   0  0  0  0  0  0  0  0  0  0  0  0
   14.3674   10.7300    3.6050 H   0  0  0  0  0  0  0  0  0  0  0  0
  2  1  1  0
  3  2  1  0
  4  3  1  0
  5  4  2  0
  6  4  1  0
  7  6  1  0
  7  2  1  0
  8  6  1  0
  1  9  1  0
  1 10  1  0
  1 11  1  0
  2 12  1  1
  6 13  1  6
  7 14  1  0
  7 15  1  0
  8 16  1  0
  8 17  1  0
  8 18  1  0
M  CHG  1   8   1
M  END
$$$$
=
     RDKit          3D

 49 49  0  0  0  0  0  0  0  0999 V2000
   18.4960   14.4840    4.2760 C   0  0  2  0  0  0  0  0  0  0  0  0
   19.8290   15.2230    4.6190 C   0  0  2  0  0  0  0  0  0  0  0  0
   20.2060   15.2310    6.1010 C   0  0  0  0  0  0  0  0  0  0  0  0
   21.5940   15.8360    6.3140 C   0  0  0  0  0  0  0  0  0  0  0  0
   22.0330   16.6370    5.2210 O   0  0  0  0  0  0  0  0  0  0  0  0
   21.0570   17.4930    4.6300 C   0  0  0  0  0  0  0  0  0  0  0  0
   19.8920   16.6540    4.0460 C   0  0  0  0  0  0  0  0  0  0  0  0
   21.7750   18.2370    3.4960 C   0  0  0  0  0  0  0  0  0  0  0  0
   20.5560   18.5360    5.6420 C   0  0  0  0  0  0  0  0  0  0  0  0
   18.5890   13.4230    3.1440 C   0  0  0  0  0  0  0  0  0  0  0  0
   17.5950   12.2690    3.1790 C   0  0  0  0  0  0  0  0  0  0  0  0
   16.4350   12.5520    2.3010 N   0  0  0  0  0  4  0  0  0  0  0  0
   17.3950   15.5090    3.8680 C   0  0  0  0  0  0  0  0  0  0  0  0
   16.0880   15.3440    4.6610 C   0  0  0  0  0  0  0  0  0  0  0  0
   16.0860   16.1080    6.0000 C   0  0  0  0  0  0  0  0  0  0  0  0
   17.0630   17.2840    5.9280 C   0  0  0  0  0  0  0  0  0  0  0  0
   16.4460   15.2130    7.1880 C   0  0  0  0  0  0  0  0  0  0  0  0
   18.2475   13.9454    5.2023 H   0  0  0  0  0  0  0  0  0  0  0  0
   20.5869   14.6072    4.1126 H   0  0  0  0  0  0  0  0  0  0  0  0
   19.4660   15.8258    6.6565 H   0  0  0  0  0  0  0  0  0  0  0  0
   20.2188   14.1924    6.4633 H   0  0  0  0  0  0  0  0  0  0  0  0
   21.5668   16.4628    7.2175 H   0  0  0  0  0  0  0  0  0  0  0  0
   22.3025   15.0001    6.4108 H   0  0  0  0  0  0  0  0  0  0  0  0
   20.0200   16.5889    2.9554 H   0  0  0  0  0  0  0  0  0  0  0  0
   18.9544   17.1589    4.3217 H   0  0  0  0  0  0  0  0  0  0  0  0
   22.4787   18.9662    3.9238 H   0  0  0  0  0  0  0  0  0  0  0  0
   22.3267   17.5154    2.8757 H   0  0  0  0  0  0  0  0  0  0  0  0
   21.0342   18.7627    2.8757 H   0  0  0  0  0  0  0  0  0  0  0  0
   20.7321   18.1693    6.6640 H   0  0  0  0  0  0  0  0  0  0  0  0
   21.0983   19.4814    5.4931 H   0  0  0  0  0  0  0  0  0  0  0  0
   19.4791   18.7036    5.4931 H   0  0  0  0  0  0  0  0  0  0  0  0
   18.4505   13.9484    2.1876 H   0  0  0  0  0  0  0  0  0  0  0  0
   19.5725   12.9503    3.2827 H   0  0  0  0  0  0  0  0  0  0  0  0
   18.0941   11.3515    2.8339 H   0  0  0  0  0  0  0  0  0  0  0  0
   17.2357   12.1420    4.2109 H   0  0  0  0  0  0  0  0  0  0  0  0
   15.6074   12.7539    2.8800 H   0  0  0  0  0  0  0  0  0  0  0  0
   16.6451   13.3664    1.7064 H   0  0  0  0  0  0  0  0  0  0  0  0
   16.2464   11.7324    1.7064 H   0  0  0  0  0  0  0  0  0  0  0  0
   17.7820   16.5243    4.0397 H   0  0  0  0  0  0  0  0  0  0  0  0
   17.1588   15.3297    2.8087 H   0  0  0  0  0  0  0  0  0  0  0  0
   15.2565   15.7171    4.0450 H   0  0  0  0  0  0  0  0  0  0  0  0
   15.9826   14.2746    4.8962 H   0  0  0  0  0  0  0  0  0  0  0  0
   15.0614   16.4735    6.1632 H   0  0  0  0  0  0  0  0  0  0  0  0
   17.3282   17.6032    6.9467 H   0  0  0  0  0  0  0  0  0  0  0  0
   17.9723   16.9730    5.3928 H   0  0  0  0  0  0  0  0  0  0  0  0
   16.5906   18.1209    5.3928 H   0  0  0  0  0  0  0  0  0  0  0  0
   16.2318   15.7455    8.1264 H   0  0  0  0  0  0  0  0  0  0  0  0
   15.8492   14.2899    7.1458 H   0  0  0  0  0  0  0  0  0  0  0  0
   17.5157   14.9603    7.1458 H   0  0  0  0  0  0  0  0  0  0  0  0
  2  1  1  0
  3  2  1  0
  4  3  1  0
  5  4  1  0
  6  5  1  0
  7  2  1  0
  7  6  1  0
  8  6  1  0
  9  6  1  0
 10  1  1  0
 11 10  1  0
 12 11  1  0
 13  1  1  0
 14 13  1  0
 15 14  1  0
 16 15  1  0
 17 15  1  0
  1 18  1  1
  2 19  1  6
  3 20  1  0
  3 21  1  0
  4 22  1  0
  4 23  1  0
  7 24  1  0
  7 25  1  0
  8 26  1  0
  8 27  1  0
  8 28  1  0
  9 29  1  0
  9 30  1  0
  9 31  1  0
 10 32  1  0
 10 33  1  0
 11 34  1  0
 11 35  1  0
 12 36  1  0
 12 37  1  0
 12 38  1  0
 13 39  1  0
 13 40  1  0
 14 41  1  0
 14 42  1  0
 15 43  1  0
 16 44  1  0
 16 45  1  0
 16 46  1  0
 17 47  1  0
 17 48  1  0
 17 49  1  0
M  CHG  1  12   1
M  END
$$$$
=
     RDKit          3D

 48 50  0  0  0  0  0  0  0  0999 V2000
   17.8770   15.0760    3.5500 C   0  0  1  0  0  0  0  0  0  0  0  0
   18.7410   16.2990    3.3350 N   0  0  0  0  0  4  0  0  0  0  0  0
   18.8030   17.2830    4.4440 C   0  0  0  0  0  0  0  0  0  0  0  0
   20.2270   17.5520    4.8280 C   0  0  0  0  0  0  0  0  0  0  0  0
   20.9670   18.5460    4.1670 C   0  0  0  0  0  0  0  0  0  0  0  0
   22.3040   18.7660    4.4960 C   0  0  0  0  0  0  0  0  0  0  0  0
   22.9170   17.9940    5.4810 C   0  0  0  0  0  0  0  0  0  0  0  0
   22.1950   17.0020    6.1400 C   0  0  0  0  0  0  0  0  0  0  0  0
   20.8570   16.7780    5.8150 C   0  0  0  0  0  0  0  0  0  0  0  0
   18.8480   13.9300    3.9000 C   0  0  0  0  0  0  0  0  0  0  0  0
   18.8260   13.0050    2.8010 O   0  0  0  0  0  0  0  0  0  0  0  0
   16.8230   15.3420    4.6310 C   0  0  0  0  0  0  0  0  0  0  0  0
   15.4810   14.7590    4.2740 C   0  0  0  0  0  0  0  0  0  0  0  0
   14.2990   15.3840    4.6880 C   0  0  0  0  0  0  0  0  0  0  0  0
   13.0550   14.8550    4.3310 C   0  0  0  0  0  0  0  0  0  0  0  0
   12.9570   13.6890    3.5560 C   0  0  0  0  0  0  0  0  0  0  0  0
   14.1470   13.0670    3.1530 C   0  0  0  0  0  0  0  0  0  0  0  0
   15.3950   13.5910    3.5070 C   0  0  0  0  0  0  0  0  0  0  0  0
   11.6450   13.1330    3.1840 C   0  0  0  0  0  0  0  0  0  0  0  0
   10.4550   13.6840    3.6860 C   0  0  0  0  0  0  0  0  0  0  0  0
    9.2100   13.1570    3.3320 C   0  0  0  0  0  0  0  0  0  0  0  0
    9.1340   12.0670    2.4700 C   0  0  0  0  0  0  0  0  0  0  0  0
   10.3010   11.5040    1.9610 C   0  0  0  0  0  0  0  0  0  0  0  0
   11.5450   12.0330    2.3140 C   0  0  0  0  0  0  0  0  0  0  0  0
   17.2961   14.8056    2.6559 H   0  0  0  0  0  0  0  0  0  0  0  0
   19.7013   15.9733    3.1545 H   0  0  0  0  0  0  0  0  0  0  0  0
   18.2999   16.8042    2.5533 H   0  0  0  0  0  0  0  0  0  0  0  0
   18.3314   18.2228    4.1209 H   0  0  0  0  0  0  0  0  0  0  0  0
   18.2712   16.8718    5.3147 H   0  0  0  0  0  0  0  0  0  0  0  0
   20.4890   19.1545    3.3852 H   0  0  0  0  0  0  0  0  0  0  0  0
   22.8755   19.5498    3.9774 H   0  0  0  0  0  0  0  0  0  0  0  0
   23.9722   18.1683    5.7383 H   0  0  0  0  0  0  0  0  0  0  0  0
   22.6805   16.3943    6.9178 H   0  0  0  0  0  0  0  0  0  0  0  0
   20.2924   15.9902    6.3352 H   0  0  0  0  0  0  0  0  0  0  0  0
   19.8647   14.3264    4.0388 H   0  0  0  0  0  0  0  0  0  0  0  0
   18.5465   13.4340    4.8344 H   0  0  0  0  0  0  0  0  0  0  0  0
   18.8040   12.0787    3.1497 H   0  0  0  0  0  0  0  0  0  0  0  0
   17.1638   14.8936    5.5758 H   0  0  0  0  0  0  0  0  0  0  0  0
   16.7034   16.4315    4.7246 H   0  0  0  0  0  0  0  0  0  0  0  0
   14.3492   16.2977    5.2985 H   0  0  0  0  0  0  0  0  0  0  0  0
   12.1369   15.3616    4.6634 H   0  0  0  0  0  0  0  0  0  0  0  0
   14.0986   12.1501    2.5473 H   0  0  0  0  0  0  0  0  0  0  0  0
   16.3141   13.0822    3.1807 H   0  0  0  0  0  0  0  0  0  0  0  0
   10.5035   14.5447    4.3692 H   0  0  0  0  0  0  0  0  0  0  0  0
    8.2893   13.6041    3.7350 H   0  0  0  0  0  0  0  0  0  0  0  0
    8.1543   11.6514    2.1916 H   0  0  0  0  0  0  0  0  0  0  0  0
   10.2436   10.6419    1.2803 H   0  0  0  0  0  0  0  0  0  0  0  0
   12.4609   11.5817    1.9047 H   0  0  0  0  0  0  0  0  0  0  0  0
  2  1  1  0
  3  2  1  0
  4  3  1  0
  5  4  2  0
  6  5  1  0
  7  6  2  0
  8  7  1  0
  9  4  1  0
  9  8  2  0
 10  1  1  0
 11 10  1  0
 12  1  1  0
 13 12  1  0
 14 13  2  0
 15 14  1  0
 16 15  2  0
 17 16  1  0
 18 17  2  0
 18 13  1  0
 19 16  1  0
 20 19  2  0
 21 20  1  0
 22 21  2  0
 23 22  1  0
 24 23  2  0
 24 19  1  0
  1 25  1  6
  2 26  1  0
  2 27  1  0
  3 28  1  0
  3 29  1  0
  5 30  1  0
  6 31  1  0
  7 32  1  0
  8 33  1  0
  9 34  1  0
 10 35  1  0
 10 36  1  0
 11 37  1  0
 12 38  1  0
 12 39  1  0
 14 40  1  0
 15 41  1  0
 17 42  1  0
 18 43  1  0
 20 44  1  0
 21 45  1  0
 22 46  1  0
 23 47  1  0
 24 48  1  0
M  CHG  1   2   1
M  END
$$$$
=
     RDKit          3D

 32 33  0  0  0  0  0  0  0  0999 V2000
   19.1050   15.2460    4.5580 C   0  0  0  0  0  0  0  0  0  0  0  0
   19.2410   14.3050    5.3420 O   0  0  0  0  0  0  0  0  0  0  0  0
   17.9560   15.6240    3.8940 N   0  0  0  0  0  0  0  0  0  0  0  0
   21.7970   16.2860    6.2220 C   0  0  1  0  0  0  0  0  0  0  0  0
   21.6460   15.5930    4.8780 C   0  0  0  0  0  0  0  0  0  0  0  0
   20.3340   16.1440    4.3160 C   0  0  2  0  0  0  0  0  0  0  0  0
   20.1330   17.4710    5.0430 N   0  0  0  0  0  4  0  0  0  0  0  0
   21.3130   17.7040    5.9310 C   0  0  0  0  0  0  0  0  0  0  0  0
   20.9090   15.6700    7.1480 O   0  0  0  0  0  0  0  0  0  0  0  0
   16.7030   14.9680    3.9280 C   0  0  0  0  0  0  0  0  0  0  0  0
   16.4210   13.7800    3.2470 C   0  0  0  0  0  0  0  0  0  0  0  0
   15.1510   13.1930    3.3270 C   0  0  0  0  0  0  0  0  0  0  0  0
   14.1520   13.8010    4.0930 C   0  0  0  0  0  0  0  0  0  0  0  0
   14.4170   14.9910    4.7770 C   0  0  0  0  0  0  0  0  0  0  0  0
   15.6890   15.5690    4.6910 C   0  0  0  0  0  0  0  0  0  0  0  0
   12.8190   13.1890    4.1770 N   0  0  0  0  0  4  0  0  0  0  0  0
   12.4760   12.4320    3.2600 O   0  0  0  0  0  0  0  0  0  0  0  0
   12.1220   13.4710    5.1620 O   0  0  0  0  0  1  0  0  0  0  0  0
   18.0169   16.4723    3.3130 H   0  0  0  0  0  0  0  0  0  0  0  0
   22.8149   16.2467    6.6372 H   0  0  0  0  0  0  0  0  0  0  0  0
   22.4884   15.8399    4.2151 H   0  0  0  0  0  0  0  0  0  0  0  0
   21.6379   14.4967    4.9681 H   0  0  0  0  0  0  0  0  0  0  0  0
   20.4123   16.2243    3.2217 H   0  0  0  0  0  0  0  0  0  0  0  0
   20.0570   18.2357    4.3572 H   0  0  0  0  0  0  0  0  0  0  0  0
   19.2686   17.4415    5.6023 H   0  0  0  0  0  0  0  0  0  0  0  0
   21.0176   18.2203    6.8563 H   0  0  0  0  0  0  0  0  0  0  0  0
   22.0831   18.3440    5.4757 H   0  0  0  0  0  0  0  0  0  0  0  0
   21.2021   15.8733    8.0715 H   0  0  0  0  0  0  0  0  0  0  0  0
   17.2046   13.3008    2.6418 H   0  0  0  0  0  0  0  0  0  0  0  0
   14.9409   12.2569    2.7889 H   0  0  0  0  0  0  0  0  0  0  0  0
   13.6309   15.4702    5.3790 H   0  0  0  0  0  0  0  0  0  0  0  0
   15.8969   16.5062    5.2281 H   0  0  0  0  0  0  0  0  0  0  0  0
  2  1  2  0
  3  1  1  0
  5  4  1  0
  6  5  1  0
  6  1  1  0
  7  6  1  0
  8  4  1  0
  8  7  1  0
  9  4  1  0
 10  3  1  0
 11 10  2  0
 12 11  1  0
 13 12  2  0
 14 13  1  0
 15 14  2  0
 15 10  1  0
 16 13  1  0
 17 16  2  0
 18 16  1  0
  3 19  1  0
  4 20  1  1
  5 21  1  0
  5 22  1  0
  6 23  1  6
  7 24  1  0
  7 25  1  0
  8 26  1  0
  8 27  1  0
  9 28  1  0
 11 29  1  0
 12 30  1  0
 14 31  1  0
 15 32  1  0
M  CHG  3   7   1  16   1  18  -1
M  END
$$$$
=
     RDKit          3D

 35 37  0  0  0  0  0  0  0  0999 V2000
   18.7720   16.0920    3.5550 O   0  0  0  0  0  0  0  0  0  0  0  0
   22.0740   17.8770    5.3970 C   0  0  0  0  0  0  0  0  0  0  0  0
   21.4670   18.4130    4.2610 C   0  0  0  0  0  0  0  0  0  0  0  0
   20.3560   17.7900    3.6860 C   0  0  0  0  0  0  0  0  0  0  0  0
   19.8610   16.5950    4.2100 C   0  0  0  0  0  0  0  0  0  0  0  0
   20.4990   16.0220    5.3090 C   0  0  0  0  0  0  0  0  0  0  0  0
   21.6110   16.6530    5.8820 C   0  0  0  0  0  0  0  0  0  0  0  0
   23.2540   18.4370    5.9000 N   0  0  0  0  0  0  0  0  0  0  0  0
   18.0290   15.0710    4.2180 C   0  0  0  0  0  0  0  0  0  0  0  0
   16.5740   15.3420    3.9950 C   0  0  2  0  0  0  0  0  0  0  0  0
   15.7830   16.1730    4.9660 C   0  0  0  0  0  0  0  0  0  0  0  0
   15.5340   14.6820    4.8770 C   0  0  1  0  0  0  0  0  0  0  0  0
   14.2630   14.1530    4.2580 C   0  0  0  0  0  0  0  0  0  0  0  0
   13.0180   14.7550    4.5080 C   0  0  0  0  0  0  0  0  0  0  0  0
   11.8410   14.2540    3.9460 C   0  0  0  0  0  0  0  0  0  0  0  0
   11.8860   13.1320    3.1230 C   0  0  0  0  0  0  0  0  0  0  0  0
   13.1040   12.5110    2.8680 C   0  0  0  0  0  0  0  0  0  0  0  0
   14.2780   13.0160    3.4330 C   0  0  0  0  0  0  0  0  0  0  0  0
   21.8667   19.3349    3.8135 H   0  0  0  0  0  0  0  0  0  0  0  0
   19.8672   18.2458    2.8123 H   0  0  0  0  0  0  0  0  0  0  0  0
   20.1292   15.0739    5.7266 H   0  0  0  0  0  0  0  0  0  0  0  0
   22.1275   16.1759    6.7279 H   0  0  0  0  0  0  0  0  0  0  0  0
   23.6972   18.0366    6.7391 H   0  0  0  0  0  0  0  0  0  0  0  0
   23.6792   19.2495    5.4310 H   0  0  0  0  0  0  0  0  0  0  0  0
   18.2937   14.0871    3.8034 H   0  0  0  0  0  0  0  0  0  0  0  0
   18.2576   15.0683    5.2940 H   0  0  0  0  0  0  0  0  0  0  0  0
   16.7631   15.3922    2.9125 H   0  0  0  0  0  0  0  0  0  0  0  0
   16.2744   16.5957    5.8547 H   0  0  0  0  0  0  0  0  0  0  0  0
   15.1532   17.0713    4.8857 H   0  0  0  0  0  0  0  0  0  0  0  0
   15.5271   13.8532    5.6002 H   0  0  0  0  0  0  0  0  0  0  0  0
   12.9691   15.6395    5.1601 H   0  0  0  0  0  0  0  0  0  0  0  0
   10.8793   14.7458    4.1537 H   0  0  0  0  0  0  0  0  0  0  0  0
   10.9614   12.7380    2.6760 H   0  0  0  0  0  0  0  0  0  0  0  0
   13.1432   11.6220    2.2213 H   0  0  0  0  0  0  0  0  0  0  0  0
   15.2342   12.5126    3.2274 H   0  0  0  0  0  0  0  0  0  0  0  0
  3  2  2  0
  4  3  1  0
  5  1  1  0
  5  4  2  0
  6  5  1  0
  7  6  2  0
  7  2  1  0
  8  2  1  0
  9  1  1  0
 10  9  1  0
 11 10  1  0
 12 11  1  0
 12 10  1  0
 13 12  1  0
 14 13  2  0
 15 14  1  0
 16 15  2  0
 17 16  1  0
 18 17  2  0
 18 13  1  0
  3 19  1  0
  4 20  1  0
  6 21  1  0
  7 22  1  0
  8 23  1  0
  8 24  1  0
  9 25  1  0
  9 26  1  0
 10 27  1  6
 11 28  1  0
 11 29  1  0
 12 30  1  1
 14 31  1  0
 15 32  1  0
 16 33  1  0
 17 34  1  0
 18 35  1  0
M  END
$$$$
=
     RDKit          3D

 52 53  0  0  0  0  0  0  0  0999 V2000
   27.1140   27.1160   16.4700 C   0  0  0  0  0  0  0  0  0  0  0  0
   27.2900   26.0240   17.0170 O   0  0  0  0  0  0  0  0  0  0  0  0
   27.8580   27.5990   15.4110 N   0  0  0  0  0  0  0  0  0  0  0  0
   28.0360   29.0390   15.1820 C   0  0  0  0  0  0  0  0  0  0  0  0
   29.5220   29.4260   15.0870 C   0  0  0  0  0  0  0  0  0  0  0  0
   30.4090   28.4930   15.9170 C   0  0  0  0  0  0  0  0  0  0  0  0
   30.2280   27.0120   15.5340 C   0  0  0  0  0  0  0  0  0  0  0  0
   28.9100   26.7760   14.7780 C   0  0  1  0  0  0  0  0  0  0  0  0
   25.9400   27.9620   16.9630 C   0  0  0  0  0  0  0  0  0  0  0  0
   26.3150   28.6110   18.2610 N   0  0  0  0  0  4  0  0  0  0  0  0
   28.6120   25.2680   14.5690 C   0  0  0  0  0  0  0  0  0  0  0  0
   27.4490   24.9560   13.7270 N   0  0  0  0  0  0  0  0  0  0  0  0
   26.4180   24.1590   14.2170 C   0  0  0  0  0  0  0  0  0  0  0  0
   26.3950   23.6810   15.3430 O   0  0  0  0  0  0  0  0  0  0  0  0
   27.3350   25.6570   12.4670 C   0  0  0  0  0  0  0  0  0  0  0  0
   27.7970   25.0520   11.1630 C   0  0  0  0  0  0  0  0  0  0  0  0
   28.5490   26.2010   11.7550 C   0  0  0  0  0  0  0  0  0  0  0  0
   25.4610   23.9400   13.2760 O   0  0  0  0  0  0  0  0  0  0  0  0
   24.1220   24.4800   13.4260 C   0  0  0  0  0  0  0  0  0  0  0  0
   23.2440   23.5600   14.2800 C   0  0  0  0  0  0  0  0  0  0  0  0
   24.1560   25.9130   13.9700 C   0  0  0  0  0  0  0  0  0  0  0  0
   23.5560   24.5120   11.9980 C   0  0  0  0  0  0  0  0  0  0  0  0
   27.5362   29.3139   14.2414 H   0  0  0  0  0  0  0  0  0  0  0  0
   27.5979   29.5765   16.0360 H   0  0  0  0  0  0  0  0  0  0  0  0
   29.8368   29.3728   14.0344 H   0  0  0  0  0  0  0  0  0  0  0  0
   29.6349   30.4459   15.4834 H   0  0  0  0  0  0  0  0  0  0  0  0
   31.4610   28.7725   15.7580 H   0  0  0  0  0  0  0  0  0  0  0  0
   30.1161   28.6038   16.9715 H   0  0  0  0  0  0  0  0  0  0  0  0
   31.0668   26.7049   14.8921 H   0  0  0  0  0  0  0  0  0  0  0  0
   30.2023   26.4194   16.4604 H   0  0  0  0  0  0  0  0  0  0  0  0
   28.9719   27.1234   13.7361 H   0  0  0  0  0  0  0  0  0  0  0  0
   25.7055   28.7366   16.2180 H   0  0  0  0  0  0  0  0  0  0  0  0
   25.0575   27.3220   17.1097 H   0  0  0  0  0  0  0  0  0  0  0  0
   25.9802   28.0315   19.0439 H   0  0  0  0  0  0  0  0  0  0  0  0
   27.3394   28.7030   18.3155 H   0  0  0  0  0  0  0  0  0  0  0  0
   25.8831   29.5445   18.3155 H   0  0  0  0  0  0  0  0  0  0  0  0
   29.4976   24.8104   14.1040 H   0  0  0  0  0  0  0  0  0  0  0  0
   28.3738   24.8699   15.5664 H   0  0  0  0  0  0  0  0  0  0  0  0
   26.3873   26.0752   12.8370 H   0  0  0  0  0  0  0  0  0  0  0  0
   28.2470   24.0483   11.1521 H   0  0  0  0  0  0  0  0  0  0  0  0
   27.3250   24.8521   10.1897 H   0  0  0  0  0  0  0  0  0  0  0  0
   29.5515   26.0412   12.1786 H   0  0  0  0  0  0  0  0  0  0  0  0
   28.8576   27.1938   11.3957 H   0  0  0  0  0  0  0  0  0  0  0  0
   23.4330   23.7581   15.3454 H   0  0  0  0  0  0  0  0  0  0  0  0
   22.1845   23.7507   14.0539 H   0  0  0  0  0  0  0  0  0  0  0  0
   23.4840   22.5106   14.0539 H   0  0  0  0  0  0  0  0  0  0  0  0
   24.1554   25.8878   15.0697 H   0  0  0  0  0  0  0  0  0  0  0  0
   25.0664   26.4184   13.6153 H   0  0  0  0  0  0  0  0  0  0  0  0
   23.2706   26.4610   13.6153 H   0  0  0  0  0  0  0  0  0  0  0  0
   22.4585   24.5740   12.0399 H   0  0  0  0  0  0  0  0  0  0  0  0
   23.9528   25.3891   11.4659 H   0  0  0  0  0  0  0  0  0  0  0  0
   23.8514   23.5957   11.4659 H   0  0  0  0  0  0  0  0  0  0  0  0
  2  1  2  0
  3  1  1  0
  4  3  1  0
  5  4  1  0
  6  5  1  0
  7  6  1  0
  8  7  1  0
  8  3  1  0
  9  1  1  0
 10  9  1  0
 11  8  1  0
 12 11  1  0
 13 12  1  0
 14 13  2  0
 15 12  1  0
 16 15  1  0
 17 16  1  0
 17 15  1  0
 18 13  1  0
 19 18  1  0
 20 19  1  0
 21 19  1  0
 22 19  1  0
  4 23  1  0
  4 24  1  0
  5 25  1  0
  5 26  1  0
  6 27  1  0
  6 28  1  0
  7 29  1  0
  7 30  1  0
  8 31  1  6
  9 32  1  0
  9 33  1  0
 10 34  1  0
 10 35  1  0
 10 36  1  0
 11 37  1  0
 11 38  1  0
 15 39  1  0
 16 40  1  0
 16 41  1  0
 17 42  1  0
 17 43  1  0
 20 44  1  0
 20 45  1  0
 20 46  1  0
 21 47  1  0
 21 48  1  0
 21 49  1  0
 22 50  1  0
 22 51  1  0
 22 52  1  0
M  CHG  1  10   1
M  END
$$$$
=
     RDKit          3D

 50 53  0  0  0  0  0  0  0  0999 V2000
   23.5140   26.5920   15.0130 C   0  0  2  0  0  0  0  0  0  0  0  0
   22.9520   26.9810   13.6280 C   0  0  0  0  0  0  0  0  0  0  0  0
   23.4980   26.0570   12.5670 N   0  0  0  0  0  4  0  0  0  0  0  0
   24.9940   25.9000   12.5520 C   0  0  0  0  0  0  0  0  0  0  0  0
   25.6740   26.6520   13.7090 C   0  0  0  0  0  0  0  0  0  0  0  0
   24.9900   26.4790   15.0030 N   0  0  0  0  0  0  0  0  0  0  0  0
   25.6340   26.5770   16.2410 C   0  0  0  0  0  0  0  0  0  0  0  0
   24.9800   26.7420   17.2700 O   0  0  0  0  0  0  0  0  0  0  0  0
   27.0760   26.4440   16.2670 C   0  0  0  0  0  0  0  0  0  0  0  0
   27.7570   25.2470   16.3680 C   0  0  0  0  0  0  0  0  0  0  0  0
   29.1010   25.5160   16.3520 N   0  0  0  0  0  0  0  0  0  0  0  0
   29.3150   26.8720   16.2290 C   0  0  0  0  0  0  0  0  0  0  0  0
   28.0590   27.4790   16.1370 C   0  0  0  0  0  0  0  0  0  0  0  0
   27.9910   28.8760   15.9430 C   0  0  0  0  0  0  0  0  0  0  0  0
   29.1730   29.6210   15.8750 C   0  0  0  0  0  0  0  0  0  0  0  0
   30.4110   28.9960   15.9930 C   0  0  0  0  0  0  0  0  0  0  0  0
   30.5060   27.6140   16.1670 C   0  0  0  0  0  0  0  0  0  0  0  0
   30.1440   24.5140   16.4210 C   0  0  0  0  0  0  0  0  0  0  0  0
   23.5030   24.1940   15.0150 O   0  0  0  0  0  0  0  0  0  0  0  0
   22.9240   25.2160   15.3910 C   0  0  0  0  0  0  0  0  0  0  0  0
   21.8180   25.2870   16.2090 N   0  0  0  0  0  0  0  0  0  0  0  0
   21.0630   24.2200   16.7340 C   0  0  0  0  0  0  0  0  0  0  0  0
   20.8650   23.0030   16.0740 C   0  0  0  0  0  0  0  0  0  0  0  0
   20.0960   21.9970   16.6680 C   0  0  0  0  0  0  0  0  0  0  0  0
   19.5280   22.2090   17.9170 C   0  0  0  0  0  0  0  0  0  0  0  0
   19.7090   23.4110   18.5860 C   0  0  0  0  0  0  0  0  0  0  0  0
   20.4760   24.4170   17.9930 C   0  0  0  0  0  0  0  0  0  0  0  0
   18.7930   21.2410   18.4810 F   0  0  0  0  0  0  0  0  0  0  0  0
   23.2390   27.3756   15.7343 H   0  0  0  0  0  0  0  0  0  0  0  0
   21.8548   26.9052   13.6465 H   0  0  0  0  0  0  0  0  0  0  0  0
   23.2527   28.0132   13.3951 H   0  0  0  0  0  0  0  0  0  0  0  0
   23.0827   25.1258   12.7130 H   0  0  0  0  0  0  0  0  0  0  0  0
   23.2497   26.4856   11.6639 H   0  0  0  0  0  0  0  0  0  0  0  0
   25.2378   24.8305   12.6341 H   0  0  0  0  0  0  0  0  0  0  0  0
   25.3667   26.3271   11.6093 H   0  0  0  0  0  0  0  0  0  0  0  0
   26.7049   26.2812   13.8074 H   0  0  0  0  0  0  0  0  0  0  0  0
   25.6387   27.7238   13.4643 H   0  0  0  0  0  0  0  0  0  0  0  0
   27.2998   24.2497   16.4476 H   0  0  0  0  0  0  0  0  0  0  0  0
   27.0155   29.3749   15.8460 H   0  0  0  0  0  0  0  0  0  0  0  0
   29.1236   30.7099   15.7270 H   0  0  0  0  0  0  0  0  0  0  0  0
   31.3290   29.6004   15.9485 H   0  0  0  0  0  0  0  0  0  0  0  0
   31.4853   27.1205   16.2531 H   0  0  0  0  0  0  0  0  0  0  0  0
   30.3725   24.2945   17.4744 H   0  0  0  0  0  0  0  0  0  0  0  0
   29.8037   23.5955   15.9205 H   0  0  0  0  0  0  0  0  0  0  0  0
   31.0482   24.8908   15.9205 H   0  0  0  0  0  0  0  0  0  0  0  0
   21.5056   26.2338   16.4678 H   0  0  0  0  0  0  0  0  0  0  0  0
   21.3156   22.8364   15.0844 H   0  0  0  0  0  0  0  0  0  0  0  0
   19.9417   21.0405   16.1471 H   0  0  0  0  0  0  0  0  0  0  0  0
   19.2528   23.5704   19.5742 H   0  0  0  0  0  0  0  0  0  0  0  0
   20.6210   25.3726   18.5182 H   0  0  0  0  0  0  0  0  0  0  0  0
  2  1  1  0
  3  2  1  0
  4  3  1  0
  5  4  1  0
  6  5  1  0
  6  1  1  0
  7  6  1  0
  8  7  2  0
  9  7  1  0
 10  9  2  0
 11 10  1  0
 12 11  1  0
 13  9  1  0
 13 12  2  0
 14 13  1  0
 15 14  2  0
 16 15  1  0
 17 12  1  0
 17 16  2  0
 18 11  1  0
 20 19  2  0
 20  1  1  0
 21 20  1  0
 22 21  1  0
 23 22  2  0
 24 23  1  0
 25 24  2  0
 26 25  1  0
 27 26  2  0
 27 22  1  0
 28 25  1  0
  1 29  1  1
  2 30  1  0
  2 31  1  0
  3 32  1  0
  3 33  1  0
  4 34  1  0
  4 35  1  0
  5 36  1  0
  5 37  1  0
 10 38  1  0
 14 39  1  0
 15 40  1  0
 16 41  1  0
 17 42  1  0
 18 43  1  0
 18 44  1  0
 18 45  1  0
 21 46  1  0
 23 47  1  0
 24 48  1  0
 26 49  1  0
 27 50  1  0
M  CHG  1   3   1
M  END
$$$$
=
     RDKit          3D

 27 28  0  0  0  0  0  0  0  0999 V2000
   16.6840   15.3540    4.4680 C   0  0  0  0  0  0  0  0  0  0  0  0
   17.9660   14.9790    4.0360 C   0  0  0  0  0  0  0  0  0  0  0  0
   19.0900   15.7100    4.4230 C   0  0  0  0  0  0  0  0  0  0  0  0
   20.2950   15.3250    3.9710 F   0  0  0  0  0  0  0  0  0  0  0  0
   18.9960   16.8110    5.2780 C   0  0  0  0  0  0  0  0  0  0  0  0
   17.7130   17.2050    5.6650 C   0  0  0  0  0  0  0  0  0  0  0  0
   16.5770   16.4870    5.2890 C   0  0  0  0  0  0  0  0  0  0  0  0
   17.5610   18.2910    6.4410 F   0  0  0  0  0  0  0  0  0  0  0  0
   11.9800   12.3590    2.8530 C   0  0  0  0  0  0  0  0  0  0  0  0
   13.1980   13.1160    3.2930 C   0  0  0  0  0  0  0  0  0  0  0  0
   14.4700   12.7310    2.8590 C   0  0  0  0  0  0  0  0  0  0  0  0
   15.6010   13.4570    3.2430 C   0  0  0  0  0  0  0  0  0  0  0  0
   15.4910   14.5920    4.0640 C   0  0  0  0  0  0  0  0  0  0  0  0
   14.2090   14.9770    4.4800 C   0  0  0  0  0  0  0  0  0  0  0  0
   13.0750   14.2530    4.0970 C   0  0  0  0  0  0  0  0  0  0  0  0
   20.1180   17.6160    5.5530 N   0  0  0  0  0  0  0  0  0  0  0  0
   18.0858   14.0999    3.3857 H   0  0  0  0  0  0  0  0  0  0  0  0
   15.5867   16.8128    5.6401 H   0  0  0  0  0  0  0  0  0  0  0  0
   11.4239   12.0134    3.7369 H   0  0  0  0  0  0  0  0  0  0  0  0
   11.3374   13.0171    2.2497 H   0  0  0  0  0  0  0  0  0  0  0  0
   12.2856   11.4914    2.2497 H   0  0  0  0  0  0  0  0  0  0  0  0
   14.5816   11.8498    2.2102 H   0  0  0  0  0  0  0  0  0  0  0  0
   16.5939   13.1344    2.8966 H   0  0  0  0  0  0  0  0  0  0  0  0
   14.0926   15.8646    5.1192 H   0  0  0  0  0  0  0  0  0  0  0  0
   12.0794   14.5807    4.4308 H   0  0  0  0  0  0  0  0  0  0  0  0
   20.0296   18.4237    6.1860 H   0  0  0  0  0  0  0  0  0  0  0  0
   21.0271   17.3971    5.1212 H   0  0  0  0  0  0  0  0  0  0  0  0
  2  1  2  0
  3  2  1  0
  4  3  1  0
  5  3  2  0
  6  5  1  0
  7  1  1  0
  7  6  2  0
  8  6  1  0
 10  9  1  0
 11 10  2  0
 12 11  1  0
 13 12  2  0
 13  1  1  0
 14 13  1  0
 15 14  2  0
 15 10  1  0
 16  5  1  0
  2 17  1  0
  7 18  1  0
  9 19  1  0
  9 20  1  0
  9 21  1  0
 11 22  1  0
 12 23  1  0
 14 24  1  0
 15 25  1  0
 16 26  1  0
 16 27  1  0
M  END
$$$$
=
     RDKit          3D

 18 17  0  0  0  0  0  0  0  0999 V2000
   28.3370   24.5520   11.9980 C   0  0  0  0  0  0  0  0  0  0  0  0
   28.1960   25.8740   11.7700 C   0  0  0  0  0  0  0  0  0  0  0  0
   27.8530   23.4750   11.0370 C   0  0  0  0  0  0  0  0  0  0  0  0
   28.6830   22.2510   10.9650 N   0  0  0  0  0  4  0  0  0  0  0  0
   28.9960   23.9750   13.2430 C   0  0  0  0  0  0  0  0  0  0  0  0
   28.0850   23.3450   14.2240 N   0  0  0  0  0  4  0  0  0  0  0  0
   28.5683   26.6018   12.5060 H   0  0  0  0  0  0  0  0  0  0  0  0
   27.7087   26.2242   10.8481 H   0  0  0  0  0  0  0  0  0  0  0  0
   26.8403   23.1776   11.3467 H   0  0  0  0  0  0  0  0  0  0  0  0
   27.9019   23.9267   10.0352 H   0  0  0  0  0  0  0  0  0  0  0  0
   28.9020   21.9281   11.9183 H   0  0  0  0  0  0  0  0  0  0  0  0
   28.1662   21.5147   10.4633 H   0  0  0  0  0  0  0  0  0  0  0  0
   29.5583   22.4587   10.4633 H   0  0  0  0  0  0  0  0  0  0  0  0
   29.7205   23.2135   12.9186 H   0  0  0  0  0  0  0  0  0  0  0  0
   29.4481   24.8316   13.7644 H   0  0  0  0  0  0  0  0  0  0  0  0
   28.4032   23.5650   15.1786 H   0  0  0  0  0  0  0  0  0  0  0  0
   27.1305   23.7074   14.0882 H   0  0  0  0  0  0  0  0  0  0  0  0
   28.0872   22.3240   14.0882 H   0  0  0  0  0  0  0  0  0  0  0  0
  2  1  2  3
  3  1  1  0
  4  3  1  0
  5  1  1  0
  6  5  1  0
  2  7  1  0
  2  8  1  0
  3  9  1  0
  3 10  1  0
  4 11  1  0
  4 12  1  0
  4 13  1  0
  5 14  1  0
  5 15  1  0
  6 16  1  0
  6 17  1  0
  6 18  1  0
M  CHG  2   4   1   6   1
M  END
$$$$
=
     RDKit          3D

 25 26  0  0  0  0  0  0  0  0999 V2000
   18.5470   15.3790    6.0750 N   0  0  0  0  0  4  0  0  0  0  0  0
   19.1140   14.6570    4.8880 C   0  0  0  0  0  0  0  0  0  0  0  0
   18.2940   14.8720    3.6160 C   0  0  0  0  0  0  0  0  0  0  0  0
   16.8200   14.6340    3.8180 C   0  0  0  0  0  0  0  0  0  0  0  0
   16.0240   15.4780    4.6210 C   0  0  0  0  0  0  0  0  0  0  0  0
   16.5390   16.6950    5.3650 C   0  0  0  0  0  0  0  0  0  0  0  0
   18.0130   16.7430    5.7870 C   0  0  0  0  0  0  0  0  0  0  0  0
   14.6470   15.2050    4.7240 C   0  0  0  0  0  0  0  0  0  0  0  0
   14.0740   14.1120    4.0780 C   0  0  0  0  0  0  0  0  0  0  0  0
   14.8650   13.2750    3.3030 C   0  0  0  0  0  0  0  0  0  0  0  0
   16.2270   13.5360    3.1700 C   0  0  0  0  0  0  0  0  0  0  0  0
   17.7792   14.8096    6.4587 H   0  0  0  0  0  0  0  0  0  0  0  0
   19.3282   15.5086    6.7336 H   0  0  0  0  0  0  0  0  0  0  0  0
   20.1373   15.0200    4.7119 H   0  0  0  0  0  0  0  0  0  0  0  0
   19.0959   13.5809    5.1155 H   0  0  0  0  0  0  0  0  0  0  0  0
   18.4384   15.9084    3.2770 H   0  0  0  0  0  0  0  0  0  0  0  0
   18.6457   14.1432    2.8709 H   0  0  0  0  0  0  0  0  0  0  0  0
   16.3608   17.5668    4.7183 H   0  0  0  0  0  0  0  0  0  0  0  0
   15.9932   16.6696    6.3197 H   0  0  0  0  0  0  0  0  0  0  0  0
   18.1051   17.3609    6.6924 H   0  0  0  0  0  0  0  0  0  0  0  0
   18.5945   17.1720    4.9576 H   0  0  0  0  0  0  0  0  0  0  0  0
   14.0101   15.8687    5.3272 H   0  0  0  0  0  0  0  0  0  0  0  0
   12.9972   13.9126    4.1818 H   0  0  0  0  0  0  0  0  0  0  0  0
   14.4176   12.4079    2.7952 H   0  0  0  0  0  0  0  0  0  0  0  0
   16.8476   12.8734    2.5489 H   0  0  0  0  0  0  0  0  0  0  0  0
  2  1  1  0
  3  2  1  0
  4  3  1  0
  5  4  2  0
  6  5  1  0
  7  1  1  0
  7  6  1  0
  8  5  1  0
  9  8  2  0
 10  9  1  0
 11 10  2  0
 11  4  1  0
  1 12  1  0
  1 13  1  0
  2 14  1  0
  2 15  1  0
  3 16  1  0
  3 17  1  0
  6 18  1  0
  6 19  1  0
  7 20  1  0
  7 21  1  0
  8 22  1  0
  9 23  1  0
 10 24  1  0
 11 25  1  0
M  CHG  1   1   1
M  END
$$$$
=
     RDKit          3D

 19 18  0  0  0  0  0  0  0  0999 V2000
   18.7380   15.0700    4.9100 C   0  0  2  0  0  0  0  0  0  0  0  0
   19.6080   14.7780    6.1170 C   0  0  0  0  0  0  0  0  0  0  0  0
   19.5790   14.8870    3.6730 N   0  0  0  0  0  4  0  0  0  0  0  0
   18.1820   16.4950    4.9140 C   0  0  0  0  0  0  0  0  0  0  0  0
   18.7200   17.3340    4.1870 O   0  0  0  0  0  0  0  0  0  0  0  0
   15.9530   15.6730    5.7510 C   0  0  0  0  0  0  0  0  0  0  0  0
   16.9830   16.7880    5.7930 C   0  0  0  0  0  0  0  0  0  0  0  0
   17.8808   14.3811    4.9348 H   0  0  0  0  0  0  0  0  0  0  0  0
   19.0357   14.9701    7.0366 H   0  0  0  0  0  0  0  0  0  0  0  0
   19.9239   13.7246    6.0950 H   0  0  0  0  0  0  0  0  0  0  0  0
   20.4955   15.4275    6.0950 H   0  0  0  0  0  0  0  0  0  0  0  0
   20.5495   14.6758    3.9458 H   0  0  0  0  0  0  0  0  0  0  0  0
   19.2023   14.1083    3.1139 H   0  0  0  0  0  0  0  0  0  0  0  0
   19.5600   15.7518    3.1139 H   0  0  0  0  0  0  0  0  0  0  0  0
   15.6848   15.3827    6.7776 H   0  0  0  0  0  0  0  0  0  0  0  0
   15.0543   16.0237    5.2225 H   0  0  0  0  0  0  0  0  0  0  0  0
   16.3738   14.8049    5.2225 H   0  0  0  0  0  0  0  0  0  0  0  0
   16.5105   17.7196    5.4482 H   0  0  0  0  0  0  0  0  0  0  0  0
   17.3393   16.8789    6.8297 H   0  0  0  0  0  0  0  0  0  0  0  0
  2  1  1  0
  3  1  1  0
  4  1  1  0
  5  4  2  0
  7  6  1  0
  7  4  1  0
  1  8  1  6
  2  9  1  0
  2 10  1  0
  2 11  1  0
  3 12  1  0
  3 13  1  0
  3 14  1  0
  6 15  1  0
  6 16  1  0
  6 17  1  0
  7 18  1  0
  7 19  1  0
M  CHG  1   3   1
M  END
$$$$
=
     RDKit          3D

 59 61  0  0  0  0  0  0  0  0999 V2000
   12.5800   13.9380    3.8250 C   0  0  0  0  0  0  0  0  0  0  0  0
   11.3800   14.5610    4.1800 C   0  0  0  0  0  0  0  0  0  0  0  0
   10.1450   14.0090    3.8140 C   0  0  0  0  0  0  0  0  0  0  0  0
   10.0800   12.8250    3.0710 C   0  0  0  0  0  0  0  0  0  0  0  0
   11.3010   12.2350    2.6510 C   0  0  0  0  0  0  0  0  0  0  0  0
   12.5270   12.7590    3.0820 C   0  0  0  0  0  0  0  0  0  0  0  0
    8.8610   12.1800    2.7450 N   0  0  0  0  0  0  0  0  0  0  0  0
    7.8660   12.3800    3.8290 C   0  0  0  0  0  0  0  0  0  0  0  0
    6.6690   11.4310    3.6200 C   0  0  0  0  0  0  0  0  0  0  0  0
    6.0610   11.5800    2.2220 N   0  0  0  0  0  4  0  0  0  0  0  0
    7.1370   11.4510    1.1400 C   0  0  0  0  0  0  0  0  0  0  0  0
    8.3230   12.4080    1.3930 C   0  0  0  0  0  0  0  0  0  0  0  0
    5.2060   12.8020    2.0740 C   0  0  0  0  0  0  0  0  0  0  0  0
   15.0410   14.3870    3.7150 C   0  0  0  0  0  0  0  0  0  0  0  0
   15.3260   13.7550    2.7070 O   0  0  0  0  0  0  0  0  0  0  0  0
   13.7770   14.5420    4.2620 N   0  0  0  0  0  0  0  0  0  0  0  0
   18.3610   16.0740    4.5060 C   0  0  0  0  0  0  0  0  0  0  0  0
   18.1290   16.4900    5.8180 C   0  0  0  0  0  0  0  0  0  0  0  0
   16.8970   16.2360    6.4270 C   0  0  0  0  0  0  0  0  0  0  0  0
   15.8970   15.5560    5.7330 C   0  0  0  0  0  0  0  0  0  0  0  0
   16.1300   15.1160    4.4270 C   0  0  0  0  0  0  0  0  0  0  0  0
   17.3580   15.3890    3.8120 C   0  0  0  0  0  0  0  0  0  0  0  0
   19.5110   16.2650    3.7920 O   0  0  0  0  0  0  0  0  0  0  0  0
   19.7480   17.5750    3.2770 C   0  0  0  0  0  0  0  0  0  0  0  0
   21.1490   18.0310    3.6850 C   0  0  0  0  0  0  0  0  0  0  0  0
   22.6500   17.9920    5.7680 C   0  0  0  0  0  0  0  0  0  0  0  0
   21.2980   18.3580    5.1740 C   0  0  0  0  0  0  0  0  0  0  0  0
   11.2830   11.0050    1.9430 N   0  0  0  0  0  0  0  0  0  0  0  0
   11.4055   15.4983    4.7551 H   0  0  0  0  0  0  0  0  0  0  0  0
    9.2146   14.5130    4.1147 H   0  0  0  0  0  0  0  0  0  0  0  0
   13.4601   12.2334    2.8309 H   0  0  0  0  0  0  0  0  0  0  0  0
    8.3361   12.1666    4.8003 H   0  0  0  0  0  0  0  0  0  0  0  0
    7.5119   13.4213    3.8098 H   0  0  0  0  0  0  0  0  0  0  0  0
    7.0103   10.3935    3.7509 H   0  0  0  0  0  0  0  0  0  0  0  0
    5.8954   11.6894    4.3581 H   0  0  0  0  0  0  0  0  0  0  0  0
    5.4065   10.7959    2.0892 H   0  0  0  0  0  0  0  0  0  0  0  0
    7.5102   10.4163    1.1306 H   0  0  0  0  0  0  0  0  0  0  0  0
    6.6836   11.7167    0.1737 H   0  0  0  0  0  0  0  0  0  0  0  0
    9.1108   12.2196    0.6488 H   0  0  0  0  0  0  0  0  0  0  0  0
    7.9776   13.4489    1.3076 H   0  0  0  0  0  0  0  0  0  0  0  0
    4.9381   13.1849    3.0698 H   0  0  0  0  0  0  0  0  0  0  0  0
    5.7621   13.5739    1.5218 H   0  0  0  0  0  0  0  0  0  0  0  0
    4.2903   12.5441    1.5218 H   0  0  0  0  0  0  0  0  0  0  0  0
   13.7039   15.1671    5.0774 H   0  0  0  0  0  0  0  0  0  0  0  0
   18.9174   17.0188    6.3737 H   0  0  0  0  0  0  0  0  0  0  0  0
   16.7155   16.5739    7.4580 H   0  0  0  0  0  0  0  0  0  0  0  0
   14.9256   15.3660    6.2129 H   0  0  0  0  0  0  0  0  0  0  0  0
   17.5351   15.0627    2.7765 H   0  0  0  0  0  0  0  0  0  0  0  0
   19.6718   17.5581    2.1798 H   0  0  0  0  0  0  0  0  0  0  0  0
   19.0002   18.2720    3.6830 H   0  0  0  0  0  0  0  0  0  0  0  0
   21.8585   17.2281    3.4362 H   0  0  0  0  0  0  0  0  0  0  0  0
   21.3483   18.9636    3.1367 H   0  0  0  0  0  0  0  0  0  0  0  0
   22.5850   18.0096    6.8659 H   0  0  0  0  0  0  0  0  0  0  0  0
   22.9366   16.9839    5.4338 H   0  0  0  0  0  0  0  0  0  0  0  0
   23.4059   18.7178    5.4338 H   0  0  0  0  0  0  0  0  0  0  0  0
   21.1466   19.4396    5.3051 H   0  0  0  0  0  0  0  0  0  0  0  0
   20.5489   17.7515    5.7040 H   0  0  0  0  0  0  0  0  0  0  0  0
   12.1670   10.5741    1.6368 H   0  0  0  0  0  0  0  0  0  0  0  0
   10.3860   10.5433    1.7355 H   0  0  0  0  0  0  0  0  0  0  0  0
  2  1  2  0
  3  2  1  0
  4  3  2  0
  5  4  1  0
  6  5  2  0
  6  1  1  0
  7  4  1  0
  8  7  1  0
  9  8  1  0
 10  9  1  0
 11 10  1  0
 12 11  1  0
 12  7  1  0
 13 10  1  0
 15 14  2  0
 16 14  1  0
 16  1  1  0
 18 17  2  0
 19 18  1  0
 20 19  2  0
 21 14  1  0
 21 20  1  0
 22 21  2  0
 22 17  1  0
 23 17  1  0
 24 23  1  0
 25 24  1  0
 27 25  1  0
 27 26  1  0
 28  5  1  0
  2 29  1  0
  3 30  1  0
  6 31  1  0
  8 32  1  0
  8 33  1  0
  9 34  1  0
  9 35  1  0
 10 36  1  0
 11 37  1  0
 11 38  1  0
 12 39  1  0
 12 40  1  0
 13 41  1  0
 13 42  1  0
 13 43  1  0
 16 44  1  0
 18 45  1  0
 19 46  1  0
 20 47  1  0
 22 48  1  0
 24 49  1  0
 24 50  1  0
 25 51  1  0
 25 52  1  0
 26 53  1  0
 26 54  1  0
 26 55  1  0
 27 56  1  0
 27 57  1  0
 28 58  1  0
 28 59  1  0
M  CHG  1  10   1
M  END
$$$$
=
     RDKit          3D

 35 35  0  0  0  0  0  0  0  0999 V2000
   18.1600   14.2750    3.7120 N   0  0  0  0  0  4  0  0  0  0  0  0
   19.4180   14.9310    4.1910 C   0  0  0  0  0  0  0  0  0  0  0  0
   19.5800   14.7130    5.6890 C   0  0  0  0  0  0  0  0  0  0  0  0
   21.0770   16.5680    5.2920 N   0  0  0  0  0  0  0  0  0  0  0  0
   20.6890   15.6040    6.1900 C   0  0  0  0  0  0  0  0  0  0  0  0
   21.1750   15.4620    7.3070 O   0  0  0  0  0  0  0  0  0  0  0  0
   22.2710   18.5740    4.5260 C   0  0  0  0  0  0  0  0  0  0  0  0
   22.1600   17.4900    5.5830 C   0  0  0  0  0  0  0  0  0  0  0  0
   16.8810   14.9440    4.1530 C   0  0  0  0  0  0  0  0  0  0  0  0
   15.7670   14.5400    3.1800 C   0  0  1  0  0  0  0  0  0  0  0  0
   15.9630   13.1660    2.5590 C   0  0  0  0  0  0  0  0  0  0  0  0
   15.0850   12.2770    3.4080 C   0  0  0  0  0  0  0  0  0  0  0  0
   13.9410   13.2020    3.7540 C   0  0  0  0  0  0  0  0  0  0  0  0
   14.5390   14.4970    3.9510 O   0  0  0  0  0  0  0  0  0  0  0  0
   18.1769   14.2663    2.6822 H   0  0  0  0  0  0  0  0  0  0  0  0
   18.1503   13.3337    4.1301 H   0  0  0  0  0  0  0  0  0  0  0  0
   20.2797   14.4953    3.6640 H   0  0  0  0  0  0  0  0  0  0  0  0
   19.3632   16.0105    3.9867 H   0  0  0  0  0  0  0  0  0  0  0  0
   18.6411   14.9656    6.2035 H   0  0  0  0  0  0  0  0  0  0  0  0
   19.8255   13.6598    5.8902 H   0  0  0  0  0  0  0  0  0  0  0  0
   20.5870   16.6386    4.3888 H   0  0  0  0  0  0  0  0  0  0  0  0
   22.3714   19.5542    5.0151 H   0  0  0  0  0  0  0  0  0  0  0  0
   23.1545   18.3852    3.8985 H   0  0  0  0  0  0  0  0  0  0  0  0
   21.3676   18.5681    3.8985 H   0  0  0  0  0  0  0  0  0  0  0  0
   21.9747   17.9613    6.5595 H   0  0  0  0  0  0  0  0  0  0  0  0
   23.1019   16.9219    5.5931 H   0  0  0  0  0  0  0  0  0  0  0  0
   16.6223   14.6176    5.1711 H   0  0  0  0  0  0  0  0  0  0  0  0
   17.0055   16.0369    4.1543 H   0  0  0  0  0  0  0  0  0  0  0  0
   15.7573   15.2685    2.3559 H   0  0  0  0  0  0  0  0  0  0  0  0
   15.6357   13.1571    1.5089 H   0  0  0  0  0  0  0  0  0  0  0  0
   17.0151   12.8454    2.5425 H   0  0  0  0  0  0  0  0  0  0  0  0
   14.7341   11.4026    2.8404 H   0  0  0  0  0  0  0  0  0  0  0  0
   15.5969   11.8573    4.2865 H   0  0  0  0  0  0  0  0  0  0  0  0
   13.2121   13.2364    2.9309 H   0  0  0  0  0  0  0  0  0  0  0  0
   13.3984   12.8628    4.6488 H   0  0  0  0  0  0  0  0  0  0  0  0
  2  1  1  0
  3  2  1  0
  5  3  1  0
  5  4  1  0
  6  5  2  0
  8  4  1  0
  8  7  1  0
  9  1  1  0
 10  9  1  0
 11 10  1  0
 12 11  1  0
 13 12  1  0
 14 13  1  0
 14 10  1  0
  1 15  1  0
  1 16  1  0
  2 17  1  0
  2 18  1  0
  3 19  1  0
  3 20  1  0
  4 21  1  0
  7 22  1  0
  7 23  1  0
  7 24  1  0
  8 25  1  0
  8 26  1  0
  9 27  1  0
  9 28  1  0
 10 29  1  6
 11 30  1  0
 11 31  1  0
 12 32  1  0
 12 33  1  0
 13 34  1  0
 13 35  1  0
M  CHG  1   1   1
M  END
$$$$
=
     RDKit          3D

 28 29  0  0  0  0  0  0  0  0999 V2000
   15.8930   14.3810    3.6770 S   0  0  0  0  0  0  0  0  0  0  0  0
   17.4510   14.8960    3.8830 C   0  0  0  0  0  0  0  0  0  0  0  0
   18.5510   14.2970    3.2940 N   0  0  0  0  0  0  0  0  0  0  0  0
   19.6870   14.9640    3.6310 N   0  0  0  0  0  0  0  0  0  0  0  0
   19.2780   15.9280    4.4080 C   0  0  0  0  0  0  0  0  0  0  0  0
   17.9470   15.9520    4.6200 N   0  0  0  0  0  0  0  0  0  0  0  0
   17.1260   16.8700    5.3900 C   0  0  0  0  0  0  0  0  0  0  0  0
   20.2880   16.9000    4.9750 C   0  0  0  0  0  0  0  0  0  0  0  0
   20.5140   18.1230    4.0740 C   0  0  0  0  0  0  0  0  0  0  0  0
   21.9250   18.6860    4.1880 C   0  0  0  0  0  0  0  0  0  0  0  0
   22.3800   18.5800    5.6040 N   0  0  0  0  0  4  0  0  0  0  0  0
   22.5180   17.1830    6.1250 C   0  0  0  0  0  0  0  0  0  0  0  0
   21.5940   16.2210    5.3850 C   0  0  0  0  0  0  0  0  0  0  0  0
   18.5143   13.4653    2.6875 H   0  0  0  0  0  0  0  0  0  0  0  0
   17.2853   16.6919    6.4637 H   0  0  0  0  0  0  0  0  0  0  0  0
   17.4050   17.9054    5.1447 H   0  0  0  0  0  0  0  0  0  0  0  0
   16.0660   16.7079    5.1447 H   0  0  0  0  0  0  0  0  0  0  0  0
   19.8415   17.2889    5.9020 H   0  0  0  0  0  0  0  0  0  0  0  0
   20.3365   17.8278    3.0293 H   0  0  0  0  0  0  0  0  0  0  0  0
   19.8161   18.9084    4.3996 H   0  0  0  0  0  0  0  0  0  0  0  0
   22.6037   18.1129    3.5392 H   0  0  0  0  0  0  0  0  0  0  0  0
   21.9294   19.7406    3.8754 H   0  0  0  0  0  0  0  0  0  0  0  0
   23.2982   19.0406    5.6792 H   0  0  0  0  0  0  0  0  0  0  0  0
   21.6482   19.0274    6.1742 H   0  0  0  0  0  0  0  0  0  0  0  0
   23.5589   16.8527    5.9931 H   0  0  0  0  0  0  0  0  0  0  0  0
   22.2406   17.1807    7.1894 H   0  0  0  0  0  0  0  0  0  0  0  0
   21.3630   15.3704    6.0431 H   0  0  0  0  0  0  0  0  0  0  0  0
   22.1077   15.8833    4.4728 H   0  0  0  0  0  0  0  0  0  0  0  0
  2  1  2  0
  3  2  1  0
  4  3  1  0
  5  4  2  0
  6  5  1  0
  6  2  1  0
  7  6  1  0
  8  5  1  0
  9  8  1  0
 10  9  1  0
 11 10  1  0
 12 11  1  0
 13  8  1  0
 13 12  1  0
  3 14  1  0
  7 15  1  0
  7 16  1  0
  7 17  1  0
  8 18  1  0
  9 19  1  0
  9 20  1  0
 10 21  1  0
 10 22  1  0
 11 23  1  0
 11 24  1  0
 12 25  1  0
 12 26  1  0
 13 27  1  0
 13 28  1  0
M  CHG  1  11   1
M  END
$$$$
=
     RDKit          3D

 38 38  0  0  0  0  0  0  0  0999 V2000
   17.7440   15.9010    4.7550 C   0  0  2  0  0  0  0  0  0  0  0  0
   17.4380   17.1910    5.5340 C   0  0  0  0  0  0  0  0  0  0  0  0
   16.4460   15.1730    4.4190 C   0  0  0  0  0  0  0  0  0  0  0  0
   15.2310   15.4440    5.0730 C   0  0  0  0  0  0  0  0  0  0  0  0
   14.0630   14.7510    4.7380 C   0  0  0  0  0  0  0  0  0  0  0  0
   14.0860   13.7680    3.7540 C   0  0  0  0  0  0  0  0  0  0  0  0
   15.2790   13.4690    3.1050 C   0  0  0  0  0  0  0  0  0  0  0  0
   16.4460   14.1610    3.4370 C   0  0  0  0  0  0  0  0  0  0  0  0
   18.5880   15.0810    5.6050 O   0  0  0  0  0  0  0  0  0  0  0  0
   18.6580   16.2200    3.5330 C   0  0  0  0  0  0  0  0  0  0  0  0
   19.1610   17.6430    3.6620 N   0  0  0  0  0  4  0  0  0  0  0  0
   20.4480   17.9720    2.9890 C   0  0  0  0  0  0  0  0  0  0  0  0
   21.5550   18.1280    4.0160 C   0  0  0  0  0  0  0  0  0  0  0  0
   20.9840   18.4260    5.3990 C   0  0  0  0  0  0  0  0  0  0  0  0
   21.9360   16.3380    6.0260 C   0  0  0  0  0  0  0  0  0  0  0  0
   20.8100   17.2050    6.1070 O   0  0  0  0  0  0  0  0  0  0  0  0
   17.4863   16.9874    6.6139 H   0  0  0  0  0  0  0  0  0  0  0  0
   18.1783   17.9615    5.2727 H   0  0  0  0  0  0  0  0  0  0  0  0
   16.4305   17.5469    5.2727 H   0  0  0  0  0  0  0  0  0  0  0  0
   15.1986   16.2123    5.8596 H   0  0  0  0  0  0  0  0  0  0  0  0
   13.1210   14.9847    5.2556 H   0  0  0  0  0  0  0  0  0  0  0  0
   13.1640   13.2292    3.4902 H   0  0  0  0  0  0  0  0  0  0  0  0
   15.3036   12.6881    2.3307 H   0  0  0  0  0  0  0  0  0  0  0  0
   17.3851   13.9112    2.9214 H   0  0  0  0  0  0  0  0  0  0  0  0
   18.3879   15.2754    6.5549 H   0  0  0  0  0  0  0  0  0  0  0  0
   19.5111   15.5257    3.5174 H   0  0  0  0  0  0  0  0  0  0  0  0
   18.0883   16.1068    2.5988 H   0  0  0  0  0  0  0  0  0  0  0  0
   18.4386   18.2640    3.2703 H   0  0  0  0  0  0  0  0  0  0  0  0
   19.3464   17.7696    4.6672 H   0  0  0  0  0  0  0  0  0  0  0  0
   20.7107   17.1621    2.2926 H   0  0  0  0  0  0  0  0  0  0  0  0
   20.3331   18.9185    2.4403 H   0  0  0  0  0  0  0  0  0  0  0  0
   22.1371   17.1957    4.0610 H   0  0  0  0  0  0  0  0  0  0  0  0
   22.1954   18.9698    3.7139 H   0  0  0  0  0  0  0  0  0  0  0  0
   21.6787   19.0757    5.9515 H   0  0  0  0  0  0  0  0  0  0  0  0
   20.0141   18.9346    5.2962 H   0  0  0  0  0  0  0  0  0  0  0  0
   22.2728   16.0787    7.0405 H   0  0  0  0  0  0  0  0  0  0  0  0
   21.6547   15.4210    5.4874 H   0  0  0  0  0  0  0  0  0  0  0  0
   22.7506   16.8443    5.4874 H   0  0  0  0  0  0  0  0  0  0  0  0
  2  1  1  0
  3  1  1  0
  4  3  2  0
  5  4  1  0
  6  5  2  0
  7  6  1  0
  8  7  2  0
  8  3  1  0
  1  9  1  1
 10  1  1  0
 11 10  1  0
 12 11  1  0
 13 12  1  0
 14 13  1  0
 16 14  1  0
 16 15  1  0
  2 17  1  0
  2 18  1  0
  2 19  1  0
  4 20  1  0
  5 21  1  0
  6 22  1  0
  7 23  1  0
  8 24  1  0
  9 25  1  0
 10 26  1  0
 10 27  1  0
 11 28  1  0
 11 29  1  0
 12 30  1  0
 12 31  1  0
 13 32  1  0
 13 33  1  0
 14 34  1  0
 14 35  1  0
 15 36  1  0
 15 37  1  0
 15 38  1  0
M  CHG  1  11   1
M  END
$$$$
=
     RDKit          3D

 29 31  0  0  0  0  0  0  0  0999 V2000
   21.7990   16.9100    5.7940 C   0  0  0  0  0  0  0  0  0  0  0  0
   21.7330   16.0950    6.8520 N   0  0  0  0  0  0  0  0  0  0  0  0
   20.6550   15.2610    6.5340 O   0  0  0  0  0  0  0  0  0  0  0  0
   20.1750   15.6680    5.3100 C   0  0  0  0  0  0  0  0  0  0  0  0
   20.8600   16.6940    4.8290 N   0  0  0  0  0  0  0  0  0  0  0  0
   18.9570   14.9780    4.5980 C   0  0  0  0  0  0  0  0  0  0  0  0
   19.1150   13.8710    3.8610 N   0  0  0  0  0  0  0  0  0  0  0  0
   17.8680   13.5930    3.4290 N   0  0  0  0  0  0  0  0  0  0  0  0
   16.9150   14.4800    3.8650 C   0  0  0  0  0  0  0  0  0  0  0  0
   17.6060   15.4100    4.6420 C   0  0  0  0  0  0  0  0  0  0  0  0
   16.8890   16.4650    5.2380 C   0  0  0  0  0  0  0  0  0  0  0  0
   15.5060   16.5520    5.0360 C   0  0  0  0  0  0  0  0  0  0  0  0
   14.8410   15.6090    4.2560 C   0  0  0  0  0  0  0  0  0  0  0  0
   15.5310   14.5530    3.6540 C   0  0  0  0  0  0  0  0  0  0  0  0
   17.6440   12.4430    2.5840 C   0  0  0  0  0  0  0  0  0  0  0  0
   22.8220   17.9890    5.7180 C   0  0  0  0  0  0  0  0  0  0  0  0
   22.4740   19.0560    4.7310 N   0  0  0  0  0  4  0  0  0  0  0  0
   17.4092   17.2123    5.8552 H   0  0  0  0  0  0  0  0  0  0  0  0
   14.9390   17.3736    5.4981 H   0  0  0  0  0  0  0  0  0  0  0  0
   13.7541   15.6968    4.1113 H   0  0  0  0  0  0  0  0  0  0  0  0
   15.0077   13.8071    3.0377 H   0  0  0  0  0  0  0  0  0  0  0  0
   17.4712   11.5556    3.2107 H   0  0  0  0  0  0  0  0  0  0  0  0
   16.7636   12.6205    1.9489 H   0  0  0  0  0  0  0  0  0  0  0  0
   18.5267   12.2771    1.9489 H   0  0  0  0  0  0  0  0  0  0  0  0
   22.9199   18.4497    6.7121 H   0  0  0  0  0  0  0  0  0  0  0  0
   23.7630   17.5270    5.3846 H   0  0  0  0  0  0  0  0  0  0  0  0
   22.1952   19.9108    5.2335 H   0  0  0  0  0  0  0  0  0  0  0  0
   23.2930   19.2570    4.1397 H   0  0  0  0  0  0  0  0  0  0  0  0
   21.6939   18.7355    4.1397 H   0  0  0  0  0  0  0  0  0  0  0  0
  2  1  2  0
  3  2  1  0
  4  3  1  0
  5  4  2  0
  5  1  1  0
  6  4  1  0
  7  6  2  0
  8  7  1  0
  9  8  1  0
 10  9  2  0
 10  6  1  0
 11 10  1  0
 12 11  2  0
 13 12  1  0
 14 13  2  0
 14  9  1  0
 15  8  1  0
 16  1  1  0
 17 16  1  0
 11 18  1  0
 12 19  1  0
 13 20  1  0
 14 21  1  0
 15 22  1  0
 15 23  1  0
 15 24  1  0
 16 25  1  0
 16 26  1  0
 17 27  1  0
 17 28  1  0
 17 29  1  0
M  CHG  1  17   1
M  END
$$$$
=
     RDKit          3D

 30 30  0  0  0  0  0  0  0  0999 V2000
   19.6040   15.3610    3.4320 N   0  0  0  0  0  4  0  0  0  0  0  0
   20.4210   16.1520    4.3980 C   0  0  0  0  0  0  0  0  0  0  0  0
   19.4870   17.8800    2.8610 C   0  0  0  0  0  0  0  0  0  0  0  0
   20.3180   17.6740    4.1420 C   0  0  0  0  0  0  0  0  0  0  0  0
   19.6090   18.3920    5.3030 C   0  0  0  0  0  0  0  0  0  0  0  0
   21.7060   18.3040    3.9280 C   0  0  0  0  0  0  0  0  0  0  0  0
   18.6650   14.3790    4.0630 C   0  0  0  0  0  0  0  0  0  0  0  0
   17.3250   14.9650    4.2960 C   0  0  0  0  0  0  0  0  0  0  0  0
   16.8260   15.8970    5.1810 C   0  0  0  0  0  0  0  0  0  0  0  0
   15.4470   16.0250    4.8860 C   0  0  0  0  0  0  0  0  0  0  0  0
   15.1910   15.1660    3.8430 C   0  0  0  0  0  0  0  0  0  0  0  0
   16.3260   14.5150    3.4780 O   0  0  0  0  0  0  0  0  0  0  0  0
   19.0481   16.0193    2.8676 H   0  0  0  0  0  0  0  0  0  0  0  0
   20.2693   14.8088    2.8723 H   0  0  0  0  0  0  0  0  0  0  0  0
   20.0676   15.9397    5.4178 H   0  0  0  0  0  0  0  0  0  0  0  0
   21.4733   15.8586    4.2695 H   0  0  0  0  0  0  0  0  0  0  0  0
   18.4523   18.1365    3.1324 H   0  0  0  0  0  0  0  0  0  0  0  0
   19.9238   18.6970    2.2680 H   0  0  0  0  0  0  0  0  0  0  0  0
   19.4916   16.9535    2.2680 H   0  0  0  0  0  0  0  0  0  0  0  0
   19.9900   18.0062    6.2601 H   0  0  0  0  0  0  0  0  0  0  0  0
   19.8041   19.4727    5.2396 H   0  0  0  0  0  0  0  0  0  0  0  0
   18.5259   18.2106    5.2396 H   0  0  0  0  0  0  0  0  0  0  0  0
   22.1679   18.5137    4.9040 H   0  0  0  0  0  0  0  0  0  0  0  0
   22.3422   17.6064    3.3635 H   0  0  0  0  0  0  0  0  0  0  0  0
   21.5998   19.2421    3.3635 H   0  0  0  0  0  0  0  0  0  0  0  0
   18.5615   13.5088    3.3982 H   0  0  0  0  0  0  0  0  0  0  0  0
   19.0827   14.0870    5.0378 H   0  0  0  0  0  0  0  0  0  0  0  0
   17.3869   16.4337    5.9603 H   0  0  0  0  0  0  0  0  0  0  0  0
   14.7235   16.6817    5.3912 H   0  0  0  0  0  0  0  0  0  0  0  0
   14.2071   15.0260    3.3714 H   0  0  0  0  0  0  0  0  0  0  0  0
  2  1  1  0
  4  2  1  0
  4  3  1  0
  5  4  1  0
  6  4  1  0
  7  1  1  0
  8  7  1  0
  9  8  2  0
 10  9  1  0
 11 10  2  0
 12 11  1  0
 12  8  1  0
  1 13  1  0
  1 14  1  0
  2 15  1  0
  2 16  1  0
  3 17  1  0
  3 18  1  0
  3 19  1  0
  5 20  1  0
  5 21  1  0
  5 22  1  0
  6 23  1  0
  6 24  1  0
  6 25  1  0
  7 26  1  0
  7 27  1  0
  9 28  1  0
 10 29  1  0
 11 30  1  0
M  CHG  1   1   1
M  END
$$$$
=
     RDKit          3D

 36 36  0  0  0  0  0  0  0  0999 V2000
   18.5750   14.9120    4.6480 C   0  0  0  0  0  0  0  0  0  0  0  0
   21.4760   16.7040    5.9530 N   0  0  0  0  0  0  0  0  0  0  0  0
   21.3680   15.7830    6.9230 N   0  0  0  0  0  0  0  0  0  0  0  0
   20.2980   15.0670    6.5800 C   0  0  0  0  0  0  0  0  0  0  0  0
   19.7300   15.4980    5.3600 C   0  0  0  0  0  0  0  0  0  0  0  0
   20.5120   16.5750    4.9890 C   0  0  0  0  0  0  0  0  0  0  0  0
   22.5540   17.6760    5.9900 C   0  0  0  0  0  0  0  0  0  0  0  0
   22.4480   19.3810    4.3870 F   0  0  0  0  0  0  0  0  0  0  0  0
   22.9250   18.1190    4.5910 C   0  0  0  0  0  0  0  0  0  0  0  0
   17.6380   15.9940    4.2200 N   0  0  0  0  0  4  0  0  0  0  0  0
   16.6310   16.3830    5.2430 C   0  0  0  0  0  0  0  0  0  0  0  0
   15.5530   15.3100    5.3700 C   0  0  0  0  0  0  0  0  0  0  0  0
   14.8030   14.9470    4.0730 C   0  0  0  0  0  0  0  0  0  0  0  0
   13.2970   14.8930    4.3460 C   0  0  0  0  0  0  0  0  0  0  0  0
   15.2690   13.6160    3.4810 C   0  0  0  0  0  0  0  0  0  0  0  0
   18.9315   14.3668    3.7616 H   0  0  0  0  0  0  0  0  0  0  0  0
   18.0467   14.2217    5.3222 H   0  0  0  0  0  0  0  0  0  0  0  0
   19.9014   14.2341    7.1791 H   0  0  0  0  0  0  0  0  0  0  0  0
   20.3853   17.2044    4.0958 H   0  0  0  0  0  0  0  0  0  0  0  0
   22.2305   18.5516    6.5719 H   0  0  0  0  0  0  0  0  0  0  0  0
   23.4338   17.2099    6.4577 H   0  0  0  0  0  0  0  0  0  0  0  0
   22.4798   17.4325    3.8558 H   0  0  0  0  0  0  0  0  0  0  0  0
   24.0188   18.1101    4.4745 H   0  0  0  0  0  0  0  0  0  0  0  0
   18.1958   16.8275    3.9854 H   0  0  0  0  0  0  0  0  0  0  0  0
   17.1098   15.6217    3.4179 H   0  0  0  0  0  0  0  0  0  0  0  0
   17.1321   16.5089    6.2141 H   0  0  0  0  0  0  0  0  0  0  0  0
   16.1577   17.3267    4.9342 H   0  0  0  0  0  0  0  0  0  0  0  0
   16.0321   14.3951    5.7487 H   0  0  0  0  0  0  0  0  0  0  0  0
   14.7926   15.7326    6.0433 H   0  0  0  0  0  0  0  0  0  0  0  0
   15.0276   15.7300    3.3338 H   0  0  0  0  0  0  0  0  0  0  0  0
   13.1212   14.8867    5.4318 H   0  0  0  0  0  0  0  0  0  0  0  0
   12.8119   15.7743    3.9011 H   0  0  0  0  0  0  0  0  0  0  0  0
   12.8762   13.9792    3.9011 H   0  0  0  0  0  0  0  0  0  0  0  0
   15.5134   12.9180    4.2953 H   0  0  0  0  0  0  0  0  0  0  0  0
   14.4667   13.1896    2.8609 H   0  0  0  0  0  0  0  0  0  0  0  0
   16.1621   13.7831    2.8609 H   0  0  0  0  0  0  0  0  0  0  0  0
  3  2  1  0
  4  3  2  0
  5  1  1  0
  5  4  1  0
  6  5  2  0
  6  2  1  0
  7  2  1  0
  9  8  1  0
  9  7  1  0
 10  1  1  0
 11 10  1  0
 12 11  1  0
 13 12  1  0
 14 13  1  0
 15 13  1  0
  1 16  1  0
  1 17  1  0
  4 18  1  0
  6 19  1  0
  7 20  1  0
  7 21  1  0
  9 22  1  0
  9 23  1  0
 10 24  1  0
 10 25  1  0
 11 26  1  0
 11 27  1  0
 12 28  1  0
 12 29  1  0
 13 30  1  0
 14 31  1  0
 14 32  1  0
 14 33  1  0
 15 34  1  0
 15 35  1  0
 15 36  1  0
M  CHG  1  10   1
M  END
$$$$
=
     RDKit          3D

 32 33  0  0  0  0  0  0  0  0999 V2000
   19.2290   14.9290    4.4780 C   0  0  2  0  0  0  0  0  0  0  0  0
   19.7490   15.7570    5.6770 C   0  0  0  0  0  0  0  0  0  0  0  0
   20.8580   16.7180    5.3320 C   0  0  0  0  0  0  0  0  0  0  0  0
   21.8930   16.9690    6.2390 C   0  0  0  0  0  0  0  0  0  0  0  0
   22.8760   17.9080    5.9330 C   0  0  0  0  0  0  0  0  0  0  0  0
   22.8200   18.6100    4.7320 C   0  0  0  0  0  0  0  0  0  0  0  0
   21.7820   18.3770    3.8260 C   0  0  0  0  0  0  0  0  0  0  0  0
   20.7940   17.4270    4.1130 C   0  0  0  0  0  0  0  0  0  0  0  0
   19.6380   17.1020    3.1960 C   0  0  2  0  0  0  0  0  0  0  0  0
   19.4900   15.6060    3.1450 N   0  0  0  0  0  4  0  0  0  0  0  0
   19.7640   17.5900    1.7540 C   0  0  0  0  0  0  0  0  0  0  0  0
   17.7270   14.5960    4.5850 C   0  0  0  0  0  0  0  0  0  0  0  0
   16.1110   15.6400    6.1940 C   0  0  0  0  0  0  0  0  0  0  0  0
   16.9060   15.7320    5.1220 C   0  0  0  0  0  0  0  0  0  0  0  0
   19.8005   13.9901    4.5196 H   0  0  0  0  0  0  0  0  0  0  0  0
   18.9077   16.3346    6.0876 H   0  0  0  0  0  0  0  0  0  0  0  0
   20.1668   15.0392    6.3983 H   0  0  0  0  0  0  0  0  0  0  0  0
   21.9309   16.4248    7.1942 H   0  0  0  0  0  0  0  0  0  0  0  0
   23.6969   18.0948    6.6409 H   0  0  0  0  0  0  0  0  0  0  0  0
   23.5969   19.3519    4.4951 H   0  0  0  0  0  0  0  0  0  0  0  0
   21.7408   18.9423    2.8833 H   0  0  0  0  0  0  0  0  0  0  0  0
   18.7743   17.6323    3.6237 H   0  0  0  0  0  0  0  0  0  0  0  0
   20.3592   15.2143    2.7551 H   0  0  0  0  0  0  0  0  0  0  0  0
   18.6567   15.4240    2.5677 H   0  0  0  0  0  0  0  0  0  0  0  0
   20.0390   18.6551    1.7501 H   0  0  0  0  0  0  0  0  0  0  0  0
   20.5415   17.0086    1.2368 H   0  0  0  0  0  0  0  0  0  0  0  0
   18.8022   17.4577    1.2368 H   0  0  0  0  0  0  0  0  0  0  0  0
   17.3539   14.3382    3.5828 H   0  0  0  0  0  0  0  0  0  0  0  0
   17.6275   13.7585    5.2912 H   0  0  0  0  0  0  0  0  0  0  0  0
   15.5377   16.5164    6.5304 H   0  0  0  0  0  0  0  0  0  0  0  0
   16.0306   14.6879    6.7390 H   0  0  0  0  0  0  0  0  0  0  0  0
   16.9614   16.6998    4.6021 H   0  0  0  0  0  0  0  0  0  0  0  0
  2  1  1  0
  3  2  1  0
  4  3  2  0
  5  4  1  0
  6  5  2  0
  7  6  1  0
  8  7  2  0
  8  3  1  0
  9  8  1  0
 10  1  1  0
 10  9  1  0
 11  9  1  0
 12  1  1  0
 14 13  2  3
 14 12  1  0
  1 15  1  6
  2 16  1  0
  2 17  1  0
  4 18  1  0
  5 19  1  0
  6 20  1  0
  7 21  1  0
  9 22  1  1
 10 23  1  0
 10 24  1  0
 11 25  1  0
 11 26  1  0
 11 27  1  0
 12 28  1  0
 12 29  1  0
 13 30  1  0
 13 31  1  0
 14 32  1  0
M  CHG  1  10   1
M  END
$$$$
=
     RDKit          3D

 33 33  0  0  0  0  0  0  0  0999 V2000
   19.6590   15.2350    3.4610 N   0  0  0  0  0  4  0  0  0  0  0  0
   20.4080   16.1310    4.3940 C   0  0  0  0  0  0  0  0  0  0  0  0
   19.6210   17.7810    2.6160 C   0  0  0  0  0  0  0  0  0  0  0  0
   20.3220   17.6160    3.9750 C   0  0  0  0  0  0  0  0  0  0  0  0
   21.7170   18.2620    3.9070 C   0  0  0  0  0  0  0  0  0  0  0  0
   19.4940   18.3570    5.0430 C   0  0  0  0  0  0  0  0  0  0  0  0
   18.4740   14.5190    4.0490 C   0  0  0  0  0  0  0  0  0  0  0  0
   17.1440   15.2140    3.7310 C   0  0  0  0  0  0  0  0  0  0  0  0
   15.9960   14.2580    3.5610 C   0  0  0  0  0  0  0  0  0  0  0  0
   15.9530   13.1090    2.7970 C   0  0  0  0  0  0  0  0  0  0  0  0
   14.6850   12.4610    2.8650 C   0  0  0  0  0  0  0  0  0  0  0  0
   13.8080   13.1300    3.6890 C   0  0  0  0  0  0  0  0  0  0  0  0
   14.5120   14.5250    4.3750 S   0  0  0  0  0  0  0  0  0  0  0  0
   19.3229   15.8085    2.6742 H   0  0  0  0  0  0  0  0  0  0  0  0
   20.3240   14.4971    3.1885 H   0  0  0  0  0  0  0  0  0  0  0  0
   19.9854   16.0232    5.4038 H   0  0  0  0  0  0  0  0  0  0  0  0
   21.4670   15.8345    4.3684 H   0  0  0  0  0  0  0  0  0  0  0  0
   18.5619   18.0303    2.7776 H   0  0  0  0  0  0  0  0  0  0  0  0
   20.1057   18.5896    2.0492 H   0  0  0  0  0  0  0  0  0  0  0  0
   19.6941   16.8411    2.0492 H   0  0  0  0  0  0  0  0  0  0  0  0
   22.0910   18.4352    4.9269 H   0  0  0  0  0  0  0  0  0  0  0  0
   22.4060   17.5913    3.3728 H   0  0  0  0  0  0  0  0  0  0  0  0
   21.6512   19.2213    3.3728 H   0  0  0  0  0  0  0  0  0  0  0  0
   19.8325   18.0540    6.0448 H   0  0  0  0  0  0  0  0  0  0  0  0
   19.6282   19.4422    4.9232 H   0  0  0  0  0  0  0  0  0  0  0  0
   18.4303   18.1037    4.9232 H   0  0  0  0  0  0  0  0  0  0  0  0
   18.4431   13.4973    3.6425 H   0  0  0  0  0  0  0  0  0  0  0  0
   18.5953   14.5187    5.1423 H   0  0  0  0  0  0  0  0  0  0  0  0
   16.9050   15.9029    4.5546 H   0  0  0  0  0  0  0  0  0  0  0  0
   17.2733   15.7396    2.7734 H   0  0  0  0  0  0  0  0  0  0  0  0
   16.8006   12.7359    2.2034 H   0  0  0  0  0  0  0  0  0  0  0  0
   14.4367   11.5363    2.3234 H   0  0  0  0  0  0  0  0  0  0  0  0
   12.7754   12.8038    3.8823 H   0  0  0  0  0  0  0  0  0  0  0  0
  2  1  1  0
  4  2  1  0
  4  3  1  0
  5  4  1  0
  6  4  1  0
  7  1  1  0
  8  7  1  0
  9  8  1  0
 10  9  2  0
 11 10  1  0
 12 11  2  0
 13 12  1  0
 13  9  1  0
  1 14  1  0
  1 15  1  0
  2 16  1  0
  2 17  1  0
  3 18  1  0
  3 19  1  0
  3 20  1  0
  5 21  1  0
  5 22  1  0
  5 23  1  0
  6 24  1  0
  6 25  1  0
  6 26  1  0
  7 27  1  0
  7 28  1  0
  8 29  1  0
  8 30  1  0
 10 31  1  0
 11 32  1  0
 12 33  1  0
M  CHG  1   1   1
M  END
$$$$
=
     RDKit          3D

 33 34  0  0  0  0  0  0  0  0999 V2000
   18.5010   15.1730    4.1960 C   0  0  0  0  0  0  0  0  0  0  0  0
   18.9890   16.2380    3.4730 C   0  0  0  0  0  0  0  0  0  0  0  0
   20.1780   16.7610    3.9180 C   0  0  0  0  0  0  0  0  0  0  0  0
   20.8540   16.2920    4.9770 N   0  0  0  0  0  0  0  0  0  0  0  0
   20.2930   15.2710    5.6210 C   0  0  0  0  0  0  0  0  0  0  0  0
   19.1520   14.6760    5.2690 N   0  0  0  0  0  0  0  0  0  0  0  0
   20.9640   14.7550    6.7100 N   0  0  0  0  0  0  0  0  0  0  0  0
   14.8810   13.1100    3.0930 C   0  0  0  0  0  0  0  0  0  0  0  0
   16.1230   12.6430    2.6790 C   0  0  0  0  0  0  0  0  0  0  0  0
   17.2870   13.3280    3.0470 C   0  0  0  0  0  0  0  0  0  0  0  0
   17.2430   14.4970    3.8330 C   0  0  0  0  0  0  0  0  0  0  0  0
   15.9770   14.9720    4.2420 C   0  0  0  0  0  0  0  0  0  0  0  0
   14.8170   14.2660    3.8730 C   0  0  0  0  0  0  0  0  0  0  0  0
   15.8260   16.2070    5.0940 C   0  0  0  0  0  0  0  0  0  0  0  0
   12.5280   13.1210    3.4270 C   0  0  0  0  0  0  0  0  0  0  0  0
   13.6710   12.5410    2.8120 O   0  0  0  0  0  0  0  0  0  0  0  0
   20.6790   17.8270    3.1940 O   0  0  0  0  0  0  0  0  0  0  0  0
   21.8100   18.4380    3.8070 C   0  0  0  0  0  0  0  0  0  0  0  0
   18.4614   16.6431    2.5969 H   0  0  0  0  0  0  0  0  0  0  0  0
   20.5629   13.9648    7.2350 H   0  0  0  0  0  0  0  0  0  0  0  0
   21.8661   15.1599    6.9983 H   0  0  0  0  0  0  0  0  0  0  0  0
   16.1912   11.7349    2.0620 H   0  0  0  0  0  0  0  0  0  0  0  0
   18.2623   12.9435    2.7137 H   0  0  0  0  0  0  0  0  0  0  0  0
   13.8358   14.6340    4.2073 H   0  0  0  0  0  0  0  0  0  0  0  0
   15.8604   15.9257    6.1569 H   0  0  0  0  0  0  0  0  0  0  0  0
   16.6452   16.9071    4.8733 H   0  0  0  0  0  0  0  0  0  0  0  0
   14.8622   16.6891    4.8733 H   0  0  0  0  0  0  0  0  0  0  0  0
   12.6333   13.0676    4.5206 H   0  0  0  0  0  0  0  0  0  0  0  0
   12.4396   14.1730    3.1181 H   0  0  0  0  0  0  0  0  0  0  0  0
   11.6267   12.5712    3.1181 H   0  0  0  0  0  0  0  0  0  0  0  0
   21.7084   18.3831    4.9009 H   0  0  0  0  0  0  0  0  0  0  0  0
   22.7245   17.9112    3.4968 H   0  0  0  0  0  0  0  0  0  0  0  0
   21.8707   19.4916    3.4968 H   0  0  0  0  0  0  0  0  0  0  0  0
  2  1  2  0
  3  2  1  0
  4  3  2  0
  5  4  1  0
  6  1  1  0
  6  5  2  0
  7  5  1  0
  9  8  2  0
 10  9  1  0
 11 10  2  0
 11  1  1  0
 12 11  1  0
 13 12  2  0
 13  8  1  0
 14 12  1  0
 16 15  1  0
 16  8  1  0
 17  3  1  0
 18 17  1  0
  2 19  1  0
  7 20  1  0
  7 21  1  0
  9 22  1  0
 10 23  1  0
 13 24  1  0
 14 25  1  0
 14 26  1  0
 14 27  1  0
 15 28  1  0
 15 29  1  0
 15 30  1  0
 18 31  1  0
 18 32  1  0
 18 33  1  0
M  END
$$$$
=
     RDKit          3D

 36 37  0  0  0  0  0  0  0  0999 V2000
   20.0430   17.2060    5.5810 C   0  0  0  0  0  0  0  0  0  0  0  0
   19.1500   18.2550    5.6990 C   0  0  0  0  0  0  0  0  0  0  0  0
   17.8520   17.7630    5.4600 C   0  0  0  0  0  0  0  0  0  0  0  0
   17.9500   16.4020    5.2180 C   0  0  0  0  0  0  0  0  0  0  0  0
   19.2900   16.0640    5.3580 N   0  0  0  0  0  0  0  0  0  0  0  0
   19.8320   14.7160    5.3800 C   0  0  0  0  0  0  0  0  0  0  0  0
   16.8700   15.4110    4.9150 C   0  0  1  0  0  0  0  0  0  0  0  0
   15.4670   15.9840    5.1690 C   0  0  0  0  0  0  0  0  0  0  0  0
   14.3740   15.3250    4.3210 C   0  0  0  0  0  0  0  0  0  0  0  0
   14.7510   13.9060    3.9160 C   0  0  0  0  0  0  0  0  0  0  0  0
   16.0490   13.8590    3.1160 C   0  0  0  0  0  0  0  0  0  0  0  0
   16.9510   14.9850    3.4880 N   0  0  0  0  0  4  0  0  0  0  0  0
   23.5050   18.4920    5.0980 C   0  0  0  0  0  0  0  0  0  0  0  0
   22.1030   18.1980    4.9230 N   0  0  0  0  0  0  0  0  0  0  0  0
   21.4820   17.2930    5.7580 C   0  0  0  0  0  0  0  0  0  0  0  0
   22.0840   16.6530    6.6110 O   0  0  0  0  0  0  0  0  0  0  0  0
   19.4092   19.2968    5.9388 H   0  0  0  0  0  0  0  0  0  0  0  0
   16.9246   18.3545    5.4646 H   0  0  0  0  0  0  0  0  0  0  0  0
   19.9629   14.3904    6.4225 H   0  0  0  0  0  0  0  0  0  0  0  0
   19.1384   14.0335    4.8671 H   0  0  0  0  0  0  0  0  0  0  0  0
   20.8050   14.7036    4.8671 H   0  0  0  0  0  0  0  0  0  0  0  0
   17.0267   14.5550    5.5879 H   0  0  0  0  0  0  0  0  0  0  0  0
   15.2187   15.8388    6.2307 H   0  0  0  0  0  0  0  0  0  0  0  0
   15.4965   17.0473    4.8887 H   0  0  0  0  0  0  0  0  0  0  0  0
   13.4417   15.2931    4.9040 H   0  0  0  0  0  0  0  0  0  0  0  0
   14.2470   15.9199    3.4045 H   0  0  0  0  0  0  0  0  0  0  0  0
   14.8734   13.2991    4.8252 H   0  0  0  0  0  0  0  0  0  0  0  0
   13.9467   13.5131    3.2767 H   0  0  0  0  0  0  0  0  0  0  0  0
   16.5612   12.9068    3.3184 H   0  0  0  0  0  0  0  0  0  0  0  0
   15.8035   13.9472    2.0474 H   0  0  0  0  0  0  0  0  0  0  0  0
   17.9204   14.6951    3.2954 H   0  0  0  0  0  0  0  0  0  0  0  0
   16.6479   15.7944    2.9278 H   0  0  0  0  0  0  0  0  0  0  0  0
   23.7381   18.5409    6.1719 H   0  0  0  0  0  0  0  0  0  0  0  0
   24.1071   17.7006    4.6277 H   0  0  0  0  0  0  0  0  0  0  0  0
   23.7384   19.4586    4.6277 H   0  0  0  0  0  0  0  0  0  0  0  0
   21.5674   18.6630    4.1762 H   0  0  0  0  0  0  0  0  0  0  0  0
  2  1  2  0
  3  2  1  0
  4  3  2  0
  5  4  1  0
  5  1  1  0
  6  5  1  0
  7  4  1  0
  8  7  1  0
  9  8  1  0
 10  9  1  0
 11 10  1  0
 12 11  1  0
 12  7  1  0
 14 13  1  0
 15  1  1  0
 15 14  1  0
 16 15  2  0
  2 17  1  0
  3 18  1  0
  6 19  1  0
  6 20  1  0
  6 21  1  0
  7 22  1  1
  8 23  1  0
  8 24  1  0
  9 25  1  0
  9 26  1  0
 10 27  1  0
 10 28  1  0
 11 29  1  0
 11 30  1  0
 12 31  1  0
 12 32  1  0
 13 33  1  0
 13 34  1  0
 13 35  1  0
 14 36  1  0
M  CHG  1  12   1
M  END
$$$$
=
     RDKit          3D

 33 34  0  0  0  0  0  0  0  0999 V2000
   15.6990   15.6620    4.7480 C   0  0  1  0  0  0  0  0  0  0  0  0
   16.2740   15.8490    6.1540 C   0  0  0  0  0  0  0  0  0  0  0  0
   17.6530   16.4630    5.9440 C   0  0  0  0  0  0  0  0  0  0  0  0
   18.0380   16.0550    4.5330 N   0  0  2  0  0  4  0  0  0  0  0  0
   16.9350   15.1790    3.9930 C   0  0  0  0  0  0  0  0  0  0  0  0
   14.5100   14.6950    4.7390 C   0  0  0  0  0  0  0  0  0  0  0  0
   14.7510   13.5160    3.8670 N   0  0  0  0  0  4  0  0  0  0  0  0
   19.4330   15.4660    4.4010 C   0  0  0  0  0  0  0  0  0  0  0  0
   20.4990   16.4040    4.8720 C   0  0  0  0  0  0  0  0  0  0  0  0
   20.7430   17.6310    4.2460 C   0  0  0  0  0  0  0  0  0  0  0  0
   21.7760   18.4460    4.7010 C   0  0  0  0  0  0  0  0  0  0  0  0
   22.5440   18.0050    5.7640 C   0  0  0  0  0  0  0  0  0  0  0  0
   22.3360   16.8230    6.3860 N   0  0  0  0  0  0  0  0  0  0  0  0
   21.3150   16.0650    5.9470 C   0  0  0  0  0  0  0  0  0  0  0  0
   15.2538   16.5592    4.2932 H   0  0  0  0  0  0  0  0  0  0  0  0
   15.6371   16.5241    6.7444 H   0  0  0  0  0  0  0  0  0  0  0  0
   16.3269   14.8990    6.7060 H   0  0  0  0  0  0  0  0  0  0  0  0
   17.6090   17.5584    6.0340 H   0  0  0  0  0  0  0  0  0  0  0  0
   18.3825   16.1208    6.6929 H   0  0  0  0  0  0  0  0  0  0  0  0
   18.1188   16.8992    3.9484 H   0  0  0  0  0  0  0  0  0  0  0  0
   17.1357   14.1182    4.2039 H   0  0  0  0  0  0  0  0  0  0  0  0
   16.8261   15.2494    2.9007 H   0  0  0  0  0  0  0  0  0  0  0  0
   14.3305   14.3449    5.7662 H   0  0  0  0  0  0  0  0  0  0  0  0
   13.6383   15.2358    4.3419 H   0  0  0  0  0  0  0  0  0  0  0  0
   14.9208   12.6854    4.4519 H   0  0  0  0  0  0  0  0  0  0  0  0
   13.9257   13.3543    3.2724 H   0  0  0  0  0  0  0  0  0  0  0  0
   15.5736   13.6912    3.2724 H   0  0  0  0  0  0  0  0  0  0  0  0
   19.4847   14.5445    4.9994 H   0  0  0  0  0  0  0  0  0  0  0  0
   19.6115   15.2666    3.3341 H   0  0  0  0  0  0  0  0  0  0  0  0
   20.1208   17.9508    3.3971 H   0  0  0  0  0  0  0  0  0  0  0  0
   21.9769   19.4178    4.2265 H   0  0  0  0  0  0  0  0  0  0  0  0
   23.3632   18.6470    6.1201 H   0  0  0  0  0  0  0  0  0  0  0  0
   21.1127   15.1187    6.4701 H   0  0  0  0  0  0  0  0  0  0  0  0
  2  1  1  0
  3  2  1  0
  4  3  1  0
  5  1  1  0
  5  4  1  0
  6  1  1  0
  7  6  1  0
  8  4  1  0
  9  8  1  0
 10  9  2  0
 11 10  1  0
 12 11  2  0
 13 12  1  0
 14  9  1  0
 14 13  2  0
  1 15  1  6
  2 16  1  0
  2 17  1  0
  3 18  1  0
  3 19  1  0
  4 20  1  6
  5 21  1  0
  5 22  1  0
  6 23  1  0
  6 24  1  0
  7 25  1  0
  7 26  1  0
  7 27  1  0
  8 28  1  0
  8 29  1  0
 10 30  1  0
 11 31  1  0
 12 32  1  0
 14 33  1  0
M  CHG  2   4   1   7   1
M  END
$$$$
=
     RDKit          3D

 25 26  0  0  0  0  0  0  0  0999 V2000
   18.6340   14.9580    3.5970 C   0  0  0  0  0  0  0  0  0  0  0  0
   17.5040   15.5730    3.9960 N   0  0  0  0  0  0  0  0  0  0  0  0
   16.3610   14.8650    3.9180 C   0  0  0  0  0  0  0  0  0  0  0  0
   15.0980   15.5710    4.3310 C   0  0  0  0  0  0  0  0  0  0  0  0
   13.9800   14.5900    4.6690 C   0  0  0  0  0  0  0  0  0  0  0  0
   13.8370   13.5910    3.5610 N   0  0  0  0  0  4  0  0  0  0  0  0
   15.0770   12.7670    3.3640 C   0  0  0  0  0  0  0  0  0  0  0  0
   16.3210   13.5730    3.4300 C   0  0  0  0  0  0  0  0  0  0  0  0
   17.5420   13.0610    3.0680 C   0  0  0  0  0  0  0  0  0  0  0  0
   18.7030   13.7060    3.1290 N   0  0  0  0  0  0  0  0  0  0  0  0
   20.5340   15.4260    4.8770 C   0  0  0  0  0  0  0  0  0  0  0  0
   19.8390   15.6170    3.6520 O   0  0  0  0  0  0  0  0  0  0  0  0
   17.6370   11.7910    2.6010 O   0  0  0  0  0  0  0  0  0  0  0  0
   15.3093   16.1878    5.2170 H   0  0  0  0  0  0  0  0  0  0  0  0
   14.7629   16.1904    3.4860 H   0  0  0  0  0  0  0  0  0  0  0  0
   14.2230   14.0662    5.6053 H   0  0  0  0  0  0  0  0  0  0  0  0
   13.0350   15.1399    4.7898 H   0  0  0  0  0  0  0  0  0  0  0  0
   13.0537   12.9605    3.7842 H   0  0  0  0  0  0  0  0  0  0  0  0
   13.6673   14.1132    2.6896 H   0  0  0  0  0  0  0  0  0  0  0  0
   15.1154   11.9970    4.1486 H   0  0  0  0  0  0  0  0  0  0  0  0
   15.0232   12.3238    2.3587 H   0  0  0  0  0  0  0  0  0  0  0  0
   19.8514   15.6136    5.7189 H   0  0  0  0  0  0  0  0  0  0  0  0
   20.9062   14.3923    4.9301 H   0  0  0  0  0  0  0  0  0  0  0  0
   21.3822   16.1243    4.9301 H   0  0  0  0  0  0  0  0  0  0  0  0
   18.5188   11.4240    2.3406 H   0  0  0  0  0  0  0  0  0  0  0  0
  2  1  2  0
  3  2  1  0
  4  3  1  0
  5  4  1  0
  6  5  1  0
  7  6  1  0
  8  7  1  0
  8  3  2  0
  9  8  1  0
 10  9  2  0
 10  1  1  0
 12 11  1  0
 12  1  1  0
 13  9  1  0
  4 14  1  0
  4 15  1  0
  5 16  1  0
  5 17  1  0
  6 18  1  0
  6 19  1  0
  7 20  1  0
  7 21  1  0
 11 22  1  0
 11 23  1  0
 11 24  1  0
 13 25  1  0
M  CHG  1   6   1
M  END
$$$$
=
     RDKit          3D

 62 66  0  0  0  0  0  0  0  0999 V2000
   22.2850   25.0690   12.8870 N   0  0  0  0  0  4  0  0  0  0  0  0
   21.0400   25.8500   12.3960 C   0  0  0  0  0  0  0  0  0  0  0  0
   19.8600   24.8630   12.2320 C   0  0  0  0  0  0  0  0  0  0  0  0
   20.3570   23.4480   12.2330 N   0  0  0  0  0  0  0  0  0  0  0  0
   21.4850   23.2570   11.2870 C   0  0  0  0  0  0  0  0  0  0  0  0
   22.7040   24.0900   11.7610 C   0  0  0  0  0  0  0  0  0  0  0  0
   25.6690   25.6360   14.3530 C   0  0  2  0  0  0  0  0  0  0  0  0
   25.6700   26.6460   13.2250 N   0  0  0  0  0  4  0  0  0  0  0  0
   24.4410   26.3890   12.4210 C   0  0  0  0  0  0  0  0  0  0  0  0
   23.3910   25.9250   13.4570 C   0  0  2  0  0  0  0  0  0  0  0  0
   24.2230   25.1540   14.4880 C   0  0  0  0  0  0  0  0  0  0  0  0
   25.7670   26.2190   16.6420 O   0  0  0  0  0  0  0  0  0  0  0  0
   26.4200   26.1200   15.6020 C   0  0  0  0  0  0  0  0  0  0  0  0
   27.7780   26.3370   15.5880 N   0  0  0  0  0  0  0  0  0  0  0  0
   28.3550   26.8770   16.8210 C   0  0  0  0  0  0  0  0  0  0  0  0
   30.1000   27.2000   16.5030 S   0  0  0  0  0  0  0  0  0  0  0  0
   30.1290   26.2650   14.9730 C   0  0  0  0  0  0  0  0  0  0  0  0
   28.7030   26.4030   14.4590 C   0  0  0  0  0  0  0  0  0  0  0  0
   19.3330   22.5170   12.1710 C   0  0  0  0  0  0  0  0  0  0  0  0
   18.5060   22.1620   11.1220 C   0  0  0  0  0  0  0  0  0  0  0  0
   17.4750   21.3880   11.6960 C   0  0  0  0  0  0  0  0  0  0  0  0
   17.6460   21.2390   13.0100 N   0  0  0  0  0  0  0  0  0  0  0  0
   18.8660   21.7640   13.2690 N   0  0  0  0  0  0  0  0  0  0  0  0
   16.2770   20.8160   11.0320 C   0  0  0  0  0  0  0  0  0  0  0  0
   19.4960   21.5210   14.5230 C   0  0  0  0  0  0  0  0  0  0  0  0
   18.9930   22.0840   15.7050 C   0  0  0  0  0  0  0  0  0  0  0  0
   19.6350   21.8450   16.9230 C   0  0  0  0  0  0  0  0  0  0  0  0
   20.7770   21.0470   16.9650 C   0  0  0  0  0  0  0  0  0  0  0  0
   21.2950   20.5060   15.7890 C   0  0  0  0  0  0  0  0  0  0  0  0
   20.6660   20.7510   14.5680 C   0  0  0  0  0  0  0  0  0  0  0  0
   22.0354   24.5189   13.7213 H   0  0  0  0  0  0  0  0  0  0  0  0
   20.7750   26.6228   13.1326 H   0  0  0  0  0  0  0  0  0  0  0  0
   21.2592   26.3314   11.4315 H   0  0  0  0  0  0  0  0  0  0  0  0
   19.1547   24.9999   13.0650 H   0  0  0  0  0  0  0  0  0  0  0  0
   19.3578   25.0638   11.2741 H   0  0  0  0  0  0  0  0  0  0  0  0
   21.7592   22.1922   11.2536 H   0  0  0  0  0  0  0  0  0  0  0  0
   21.1819   23.5893   10.2832 H   0  0  0  0  0  0  0  0  0  0  0  0
   23.4810   23.4108   12.1419 H   0  0  0  0  0  0  0  0  0  0  0  0
   23.0922   24.6697   10.9106 H   0  0  0  0  0  0  0  0  0  0  0  0
   26.2777   24.7440   14.1437 H   0  0  0  0  0  0  0  0  0  0  0  0
   25.6522   27.6031   13.6051 H   0  0  0  0  0  0  0  0  0  0  0  0
   26.5175   26.5556   12.6467 H   0  0  0  0  0  0  0  0  0  0  0  0
   24.1084   27.3072   11.9148 H   0  0  0  0  0  0  0  0  0  0  0  0
   24.6068   25.6425   11.6302 H   0  0  0  0  0  0  0  0  0  0  0  0
   22.8450   26.7836   13.8751 H   0  0  0  0  0  0  0  0  0  0  0  0
   23.8504   25.3590   15.5025 H   0  0  0  0  0  0  0  0  0  0  0  0
   24.1545   24.0701   14.3138 H   0  0  0  0  0  0  0  0  0  0  0  0
   27.8440   27.8110   17.0977 H   0  0  0  0  0  0  0  0  0  0  0  0
   28.2367   26.1638   17.6501 H   0  0  0  0  0  0  0  0  0  0  0  0
   30.8490   26.6946   14.2609 H   0  0  0  0  0  0  0  0  0  0  0  0
   30.4404   25.2190   15.1106 H   0  0  0  0  0  0  0  0  0  0  0  0
   28.5887   27.3690   13.9455 H   0  0  0  0  0  0  0  0  0  0  0  0
   28.4837   25.5885   13.7529 H   0  0  0  0  0  0  0  0  0  0  0  0
   18.6263   22.4274   10.0613 H   0  0  0  0  0  0  0  0  0  0  0  0
   15.5624   20.4748   11.7955 H   0  0  0  0  0  0  0  0  0  0  0  0
   15.8034   21.5851   10.4042 H   0  0  0  0  0  0  0  0  0  0  0  0
   16.5774   19.9641   10.4042 H   0  0  0  0  0  0  0  0  0  0  0  0
   18.0921   22.7144   15.6732 H   0  0  0  0  0  0  0  0  0  0  0  0
   19.2389   22.2869   17.8492 H   0  0  0  0  0  0  0  0  0  0  0  0
   21.2702   20.8438   17.9270 H   0  0  0  0  0  0  0  0  0  0  0  0
   22.2019   19.8844   15.8240 H   0  0  0  0  0  0  0  0  0  0  0  0
   21.0889   20.3393   13.6397 H   0  0  0  0  0  0  0  0  0  0  0  0
  2  1  1  0
  3  2  1  0
  4  3  1  0
  5  4  1  0
  6  5  1  0
  6  1  1  0
  8  7  1  0
  9  8  1  0
 10  9  1  0
 10  1  1  0
 11 10  1  0
 11  7  1  0
 13  7  1  0
 13 12  2  0
 14 13  1  0
 15 14  1  0
 16 15  1  0
 17 16  1  0
 18 17  1  0
 18 14  1  0
 19  4  1  0
 20 19  2  0
 21 20  1  0
 22 21  2  0
 23 22  1  0
 23 19  1  0
 24 21  1  0
 25 23  1  0
 26 25  2  0
 27 26  1  0
 28 27  2  0
 29 28  1  0
 30 29  2  0
 30 25  1  0
  1 31  1  0
  2 32  1  0
  2 33  1  0
  3 34  1  0
  3 35  1  0
  5 36  1  0
  5 37  1  0
  6 38  1  0
  6 39  1  0
  7 40  1  6
  8 41  1  0
  8 42  1  0
  9 43  1  0
  9 44  1  0
 10 45  1  1
 11 46  1  0
 11 47  1  0
 15 48  1  0
 15 49  1  0
 17 50  1  0
 17 51  1  0
 18 52  1  0
 18 53  1  0
 20 54  1  0
 24 55  1  0
 24 56  1  0
 24 57  1  0
 26 58  1  0
 27 59  1  0
 28 60  1  0
 29 61  1  0
 30 62  1  0
M  CHG  2   1   1   8   1
M  END
$$$$
=
     RDKit          3D

 27 27  0  0  0  0  0  0  0  0999 V2000
   19.7630   17.8410    3.6140 C   0  0  1  0  0  0  0  0  0  0  0  0
   19.7940   17.4980    2.1200 C   0  0  0  0  0  0  0  0  0  0  0  0
   18.6260   17.1140    4.3150 C   0  0  0  0  0  0  0  0  0  0  0  0
   18.0410   15.9860    3.7110 C   0  0  0  0  0  0  0  0  0  0  0  0
   16.9900   15.3110    4.3350 C   0  0  0  0  0  0  0  0  0  0  0  0
   16.5210   15.7570    5.5640 C   0  0  0  0  0  0  0  0  0  0  0  0
   17.0840   16.8650    6.1820 C   0  0  0  0  0  0  0  0  0  0  0  0
   18.1360   17.5420    5.5610 C   0  0  0  0  0  0  0  0  0  0  0  0
   15.5130   15.1100    6.1610 F   0  0  0  0  0  0  0  0  0  0  0  0
   21.1040   17.5420    4.3190 C   0  0  0  0  0  0  0  0  0  0  0  0
   22.1320   18.6680    4.2760 C   0  0  0  0  0  0  0  0  0  0  0  0
   23.0060   18.6360    5.4730 N   0  0  0  0  0  4  0  0  0  0  0  0
   19.5923   18.9255    3.6830 H   0  0  0  0  0  0  0  0  0  0  0  0
   19.8924   16.4095    1.9957 H   0  0  0  0  0  0  0  0  0  0  0  0
   18.8614   17.8384    1.6462 H   0  0  0  0  0  0  0  0  0  0  0  0
   20.6504   18.0001    1.6462 H   0  0  0  0  0  0  0  0  0  0  0  0
   18.4149   15.6328    2.7387 H   0  0  0  0  0  0  0  0  0  0  0  0
   16.5360   14.4310    3.8560 H   0  0  0  0  0  0  0  0  0  0  0  0
   16.7037   17.2080    7.1555 H   0  0  0  0  0  0  0  0  0  0  0  0
   18.5852   18.4182    6.0515 H   0  0  0  0  0  0  0  0  0  0  0  0
   20.8898   17.3183    5.3745 H   0  0  0  0  0  0  0  0  0  0  0  0
   21.5533   16.7008    3.7707 H   0  0  0  0  0  0  0  0  0  0  0  0
   22.7523   18.5545    3.3747 H   0  0  0  0  0  0  0  0  0  0  0  0
   21.5979   19.6294    4.2579 H   0  0  0  0  0  0  0  0  0  0  0  0
   22.4248   18.6573    6.3231 H   0  0  0  0  0  0  0  0  0  0  0  0
   23.5694   17.7738    5.4638 H   0  0  0  0  0  0  0  0  0  0  0  0
   23.6310   19.4547    5.4638 H   0  0  0  0  0  0  0  0  0  0  0  0
  2  1  1  0
  3  1  1  0
  4  3  2  0
  5  4  1  0
  6  5  2  0
  7  6  1  0
  8  3  1  0
  8  7  2  0
  9  6  1  0
 10  1  1  0
 11 10  1  0
 12 11  1  0
  1 13  1  6
  2 14  1  0
  2 15  1  0
  2 16  1  0
  4 17  1  0
  5 18  1  0
  7 19  1  0
  8 20  1  0
 10 21  1  0
 10 22  1  0
 11 23  1  0
 11 24  1  0
 12 25  1  0
 12 26  1  0
 12 27  1  0
M  CHG  1  12   1
M  END
$$$$
=
     RDKit          3D

 30 30  0  0  0  0  0  0  0  0999 V2000
   19.2630   15.5570    4.2080 C   0  0  0  0  0  0  0  0  0  0  0  0
   19.9060   16.5650    3.5120 C   0  0  0  0  0  0  0  0  0  0  0  0
   20.9330   17.0470    4.3720 C   0  0  0  0  0  0  0  0  0  0  0  0
   20.9200   16.3660    5.5290 N   0  0  0  0  0  0  0  0  0  0  0  0
   19.9400   15.4640    5.4030 N   0  0  0  0  0  0  0  0  0  0  0  0
   19.7020   14.5470    6.5000 C   0  0  0  0  0  0  0  0  0  0  0  0
   21.9150   18.1580    4.0770 C   0  0  0  0  0  0  0  0  0  0  0  0
   23.1970   17.7220    4.2360 F   0  0  0  0  0  0  0  0  0  0  0  0
   21.7620   19.2200    4.9070 F   0  0  0  0  0  0  0  0  0  0  0  0
   21.8190   18.6110    2.8020 F   0  0  0  0  0  0  0  0  0  0  0  0
   18.1210   14.6750    3.8720 C   0  0  0  0  0  0  0  0  0  0  0  0
   18.5690   13.4320    3.1860 N   0  0  0  0  0  4  0  0  0  0  0  0
   17.4730   12.4660    2.8820 C   0  0  0  0  0  0  0  0  0  0  0  0
   14.9430   12.2690    3.1380 C   0  0  0  0  0  0  0  0  0  0  0  0
   16.1260   13.1830    2.8560 C   0  0  0  0  0  0  0  0  0  0  0  0
   19.6711   16.9221    2.4984 H   0  0  0  0  0  0  0  0  0  0  0  0
   19.8390   15.0748    7.4554 H   0  0  0  0  0  0  0  0  0  0  0  0
   18.6739   14.1608    6.4386 H   0  0  0  0  0  0  0  0  0  0  0  0
   20.4125   13.7095    6.4386 H   0  0  0  0  0  0  0  0  0  0  0  0
   17.5969   14.4012    4.7996 H   0  0  0  0  0  0  0  0  0  0  0  0
   17.4541   15.2222    3.1895 H   0  0  0  0  0  0  0  0  0  0  0  0
   19.0190   13.6982    2.2986 H   0  0  0  0  0  0  0  0  0  0  0  0
   19.2108   12.9537    3.8342 H   0  0  0  0  0  0  0  0  0  0  0  0
   17.6576   12.0051    1.9004 H   0  0  0  0  0  0  0  0  0  0  0  0
   17.4512   11.6925    3.6638 H   0  0  0  0  0  0  0  0  0  0  0  0
   14.8100   12.1662    4.2251 H   0  0  0  0  0  0  0  0  0  0  0  0
   14.0327   12.7007    2.6964 H   0  0  0  0  0  0  0  0  0  0  0  0
   15.1309   11.2792    2.6964 H   0  0  0  0  0  0  0  0  0  0  0  0
   15.9897   13.6308    1.8605 H   0  0  0  0  0  0  0  0  0  0  0  0
   16.1475   13.9381    3.6556 H   0  0  0  0  0  0  0  0  0  0  0  0
  2  1  2  0
  3  2  1  0
  4  3  2  0
  5  1  1  0
  5  4  1  0
  6  5  1  0
  7  3  1  0
  8  7  1  0
  9  7  1  0
 10  7  1  0
 11  1  1  0
 12 11  1  0
 13 12  1  0
 15 14  1  0
 15 13  1  0
  2 16  1  0
  6 17  1  0
  6 18  1  0
  6 19  1  0
 11 20  1  0
 11 21  1  0
 12 22  1  0
 12 23  1  0
 13 24  1  0
 13 25  1  0
 14 26  1  0
 14 27  1  0
 14 28  1  0
 15 29  1  0
 15 30  1  0
M  CHG  1  12   1
M  END
$$$$
=
     RDKit          3D

 28 28  0  0  0  0  0  0  0  0999 V2000
   19.9070   16.3240    4.2750 C   0  0  1  0  0  0  0  0  0  0  0  0
   21.2560   15.7840    4.7380 C   0  0  0  0  0  0  0  0  0  0  0  0
   19.2810   15.3500    3.4160 O   0  0  0  0  0  0  0  0  0  0  0  0
   17.8820   15.4450    3.6130 N   0  0  0  0  0  0  0  0  0  0  0  0
   17.6990   15.9720    4.7840 C   0  0  0  0  0  0  0  0  0  0  0  0
   18.9390   16.4690    5.4390 C   0  0  0  0  0  0  0  0  0  0  0  0
   16.3470   16.1620    5.4220 C   0  0  0  0  0  0  0  0  0  0  0  0
   15.2720   15.5710    4.5170 C   0  0  0  0  0  0  0  0  0  0  0  0
   16.3010   15.5410    6.8150 C   0  0  0  0  0  0  0  0  0  0  0  0
   20.0970   17.5910    3.4120 C   0  0  0  0  0  0  0  0  0  0  0  0
   19.7420   17.3250    1.9850 N   0  0  0  0  0  4  0  0  0  0  0  0
   21.2880   15.7712    5.8375 H   0  0  0  0  0  0  0  0  0  0  0  0
   21.3927   14.7618    4.3552 H   0  0  0  0  0  0  0  0  0  0  0  0
   22.0603   16.4295    4.3552 H   0  0  0  0  0  0  0  0  0  0  0  0
   18.8411   17.5152    5.7645 H   0  0  0  0  0  0  0  0  0  0  0  0
   19.2284   15.9411    6.3596 H   0  0  0  0  0  0  0  0  0  0  0  0
   16.1578   17.2387    5.5437 H   0  0  0  0  0  0  0  0  0  0  0  0
   14.4739   15.1322    5.1339 H   0  0  0  0  0  0  0  0  0  0  0  0
   14.8505   16.3642    3.8820 H   0  0  0  0  0  0  0  0  0  0  0  0
   15.7159   14.7901    3.8820 H   0  0  0  0  0  0  0  0  0  0  0  0
   16.3599   16.3360    7.5730 H   0  0  0  0  0  0  0  0  0  0  0  0
   15.3593   14.9860    6.9381 H   0  0  0  0  0  0  0  0  0  0  0  0
   17.1507   14.8533    6.9381 H   0  0  0  0  0  0  0  0  0  0  0  0
   19.4500   18.3913    3.8005 H   0  0  0  0  0  0  0  0  0  0  0  0
   21.1538   17.8925    3.4600 H   0  0  0  0  0  0  0  0  0  0  0  0
   18.9183   16.7078    1.9454 H   0  0  0  0  0  0  0  0  0  0  0  0
   19.5272   18.2149    1.5130 H   0  0  0  0  0  0  0  0  0  0  0  0
   20.5358   16.8689    1.5130 H   0  0  0  0  0  0  0  0  0  0  0  0
  1  2  1  1
  3  1  1  0
  4  3  1  0
  5  4  2  0
  6  5  1  0
  6  1  1  0
  7  5  1  0
  8  7  1  0
  9  7  1  0
 10  1  1  0
 11 10  1  0
  2 12  1  0
  2 13  1  0
  2 14  1  0
  6 15  1  0
  6 16  1  0
  7 17  1  0
  8 18  1  0
  8 19  1  0
  8 20  1  0
  9 21  1  0
  9 22  1  0
  9 23  1  0
 10 24  1  0
 10 25  1  0
 11 26  1  0
 11 27  1  0
 11 28  1  0
M  CHG  1  11   1
M  END
$$$$
=
     RDKit          3D

 45 46  0  0  0  0  0  0  0  0999 V2000
   21.2240   15.7990    7.1240 O   0  0  0  0  0  0  0  0  0  0  0  0
   20.8200   16.0070    5.9890 C   0  0  0  0  0  0  0  0  0  0  0  0
   19.5310   15.7030    5.5710 N   0  0  0  0  0  0  0  0  0  0  0  0
   18.6320   15.0170    6.4800 C   0  0  0  0  0  0  0  0  0  0  0  0
   17.2260   15.6190    6.4440 C   0  0  0  0  0  0  0  0  0  0  0  0
   16.7800   16.0670    5.0340 C   0  0  0  0  0  0  0  0  0  0  0  0
   17.6710   15.4580    3.9430 C   0  0  0  0  0  0  0  0  0  0  0  0
   19.1320   15.8480    4.1770 C   0  0  0  0  0  0  0  0  0  0  0  0
   15.2800   15.8660    4.7880 C   0  0  0  0  0  0  0  0  0  0  0  0
   15.0130   14.9670    3.6240 N   0  0  0  0  0  4  0  0  0  0  0  0
   14.5960   13.6040    4.0160 C   0  0  0  0  0  0  0  0  0  0  0  0
   15.1650   12.4740    3.2080 C   0  0  0  0  0  0  0  0  0  0  0  0
   13.7180   12.8520    3.0590 C   0  0  0  0  0  0  0  0  0  0  0  0
   21.5550   16.5570    4.9900 O   0  0  0  0  0  0  0  0  0  0  0  0
   21.8240   17.9840    4.9580 C   0  0  0  0  0  0  0  0  0  0  0  0
   20.7330   18.7720    5.6920 C   0  0  0  0  0  0  0  0  0  0  0  0
   21.7760   18.3530    3.4670 C   0  0  0  0  0  0  0  0  0  0  0  0
   23.2230   18.3000    5.4970 C   0  0  0  0  0  0  0  0  0  0  0  0
   18.5738   13.9570    6.1920 H   0  0  0  0  0  0  0  0  0  0  0  0
   19.0265   15.1260    7.5010 H   0  0  0  0  0  0  0  0  0  0  0  0
   16.5150   14.8636    6.8099 H   0  0  0  0  0  0  0  0  0  0  0  0
   17.2442   16.5183    7.0771 H   0  0  0  0  0  0  0  0  0  0  0  0
   16.9252   17.1560    4.9792 H   0  0  0  0  0  0  0  0  0  0  0  0
   17.5787   14.3622    3.9679 H   0  0  0  0  0  0  0  0  0  0  0  0
   17.3498   15.8391    2.9624 H   0  0  0  0  0  0  0  0  0  0  0  0
   19.7729   15.2034    3.5576 H   0  0  0  0  0  0  0  0  0  0  0  0
   19.2429   16.9083    3.9058 H   0  0  0  0  0  0  0  0  0  0  0  0
   14.8299   15.4225    5.6884 H   0  0  0  0  0  0  0  0  0  0  0  0
   14.8406   16.8489    4.5626 H   0  0  0  0  0  0  0  0  0  0  0  0
   14.2645   15.3856    3.0535 H   0  0  0  0  0  0  0  0  0  0  0  0
   15.8965   14.8756    3.1025 H   0  0  0  0  0  0  0  0  0  0  0  0
   14.5395   13.8505    5.0865 H   0  0  0  0  0  0  0  0  0  0  0  0
   15.8748   12.6826    2.3939 H   0  0  0  0  0  0  0  0  0  0  0  0
   15.7066   11.5456    3.4420 H   0  0  0  0  0  0  0  0  0  0  0  0
   13.3685   13.3372    2.1358 H   0  0  0  0  0  0  0  0  0  0  0  0
   12.7614   12.3148    3.1387 H   0  0  0  0  0  0  0  0  0  0  0  0
   20.8746   18.6697    6.7780 H   0  0  0  0  0  0  0  0  0  0  0  0
   20.7966   19.8339    5.4123 H   0  0  0  0  0  0  0  0  0  0  0  0
   19.7449   18.3778    5.4123 H   0  0  0  0  0  0  0  0  0  0  0  0
   21.6347   19.4389    3.3624 H   0  0  0  0  0  0  0  0  0  0  0  0
   22.7201   18.0580    2.9857 H   0  0  0  0  0  0  0  0  0  0  0  0
   20.9388   17.8263    2.9857 H   0  0  0  0  0  0  0  0  0  0  0  0
   23.2019   18.2952    6.5968 H   0  0  0  0  0  0  0  0  0  0  0  0
   23.9336   17.5397    5.1406 H   0  0  0  0  0  0  0  0  0  0  0  0
   23.5378   19.2919    5.1406 H   0  0  0  0  0  0  0  0  0  0  0  0
  2  1  2  0
  3  2  1  0
  4  3  1  0
  5  4  1  0
  6  5  1  0
  7  6  1  0
  8  7  1  0
  8  3  1  0
  9  6  1  0
 10  9  1  0
 11 10  1  0
 12 11  1  0
 13 12  1  0
 13 11  1  0
 14  2  1  0
 15 14  1  0
 16 15  1  0
 17 15  1  0
 18 15  1  0
  4 19  1  0
  4 20  1  0
  5 21  1  0
  5 22  1  0
  6 23  1  0
  7 24  1  0
  7 25  1  0
  8 26  1  0
  8 27  1  0
  9 28  1  0
  9 29  1  0
 10 30  1  0
 10 31  1  0
 11 32  1  0
 12 33  1  0
 12 34  1  0
 13 35  1  0
 13 36  1  0
 16 37  1  0
 16 38  1  0
 16 39  1  0
 17 40  1  0
 17 41  1  0
 17 42  1  0
 18 43  1  0
 18 44  1  0
 18 45  1  0
M  CHG  1  10   1
M  END
$$$$
=
     RDKit          3D

 34 36  0  0  0  0  0  0  0  0999 V2000
   16.3780   14.2000    3.6770 C   0  0  0  0  0  0  0  0  0  0  0  0
   15.0150   14.2500    3.9840 C   0  0  0  0  0  0  0  0  0  0  0  0
   14.4880   15.3890    4.5830 C   0  0  0  0  0  0  0  0  0  0  0  0
   15.3480   16.4360    4.8610 C   0  0  0  0  0  0  0  0  0  0  0  0
   16.6770   16.4160    4.5890 N   0  0  0  0  0  0  0  0  0  0  0  0
   17.1780   15.3080    3.9800 C   0  0  0  0  0  0  0  0  0  0  0  0
   18.5500   15.3380    3.7430 N   0  0  0  0  0  0  0  0  0  0  0  0
   19.3770   14.5060    4.6320 C   0  0  0  0  0  0  0  0  0  0  0  0
   20.6530   15.2050    5.0940 C   0  0  0  0  0  0  0  0  0  0  0  0
   20.4730   16.5370    5.8470 C   0  0  2  0  0  0  0  0  0  0  0  0
   19.2100   17.2410    5.4880 N   0  0  0  0  0  4  0  0  0  0  0  0
   19.4110   17.7180    4.0750 C   0  0  2  0  0  0  0  0  0  0  0  0
   19.0810   16.5540    3.0890 C   0  0  0  0  0  0  0  0  0  0  0  0
   20.8890   18.1390    4.0810 C   0  0  0  0  0  0  0  0  0  0  0  0
   21.4900   17.5730    5.3770 C   0  0  0  0  0  0  0  0  0  0  0  0
   17.3400   12.0750    2.5510 N   0  0  0  0  0  0  0  0  0  0  0  0
   16.9180   13.0360    3.0470 C   0  0  0  0  0  0  0  0  0  0  0  0
   14.3638   13.3941    3.7533 H   0  0  0  0  0  0  0  0  0  0  0  0
   13.4178   15.4554    4.8287 H   0  0  0  0  0  0  0  0  0  0  0  0
   14.9296   17.3385    5.3305 H   0  0  0  0  0  0  0  0  0  0  0  0
   18.7816   14.2431    5.5188 H   0  0  0  0  0  0  0  0  0  0  0  0
   19.6800   13.6169    4.0596 H   0  0  0  0  0  0  0  0  0  0  0  0
   21.1899   14.5141    5.7607 H   0  0  0  0  0  0  0  0  0  0  0  0
   21.1940   15.4628    4.1716 H   0  0  0  0  0  0  0  0  0  0  0  0
   20.5387   16.2444    6.9053 H   0  0  0  0  0  0  0  0  0  0  0  0
   18.4092   16.5953    5.5406 H   0  0  0  0  0  0  0  0  0  0  0  0
   19.0072   18.0193    6.1315 H   0  0  0  0  0  0  0  0  0  0  0  0
   18.7640   18.5455    3.7486 H   0  0  0  0  0  0  0  0  0  0  0  0
   20.0031   16.2833    2.5538 H   0  0  0  0  0  0  0  0  0  0  0  0
   18.2914   16.9225    2.4176 H   0  0  0  0  0  0  0  0  0  0  0  0
   21.4081   17.7215    3.2057 H   0  0  0  0  0  0  0  0  0  0  0  0
   20.9947   19.2329    4.0342 H   0  0  0  0  0  0  0  0  0  0  0  0
   22.4639   17.1009    5.1806 H   0  0  0  0  0  0  0  0  0  0  0  0
   21.6717   18.3536    6.1304 H   0  0  0  0  0  0  0  0  0  0  0  0
  2  1  2  0
  3  2  1  0
  4  3  2  0
  5  4  1  0
  6  1  1  0
  6  5  2  0
  7  6  1  0
  8  7  1  0
  9  8  1  0
 10  9  1  0
 11 10  1  0
 12 11  1  0
 13  7  1  0
 13 12  1  0
 14 12  1  0
 15 14  1  0
 15 10  1  0
 17 16  3  0
 17  1  1  0
  2 18  1  0
  3 19  1  0
  4 20  1  0
  8 21  1  0
  8 22  1  0
  9 23  1  0
  9 24  1  0
 10 25  1  1
 11 26  1  0
 11 27  1  0
 12 28  1  6
 13 29  1  0
 13 30  1  0
 14 31  1  0
 14 32  1  0
 15 33  1  0
 15 34  1  0
M  CHG  1  11   1
M  END
$$$$
=
     RDKit          3D

 35 35  0  0  0  0  0  0  0  0999 V2000
   20.4650   15.2440    5.6710 C   0  0  1  0  0  0  0  0  0  0  0  0
   20.9400   17.1780    4.0900 C   0  0  0  0  0  0  0  0  0  0  0  0
   21.6380   18.3400    3.7450 C   0  0  0  0  0  0  0  0  0  0  0  0
   22.6280   18.8430    4.5870 C   0  0  0  0  0  0  0  0  0  0  0  0
   22.9240   18.1930    5.7780 C   0  0  0  0  0  0  0  0  0  0  0  0
   22.2370   17.0310    6.1310 C   0  0  0  0  0  0  0  0  0  0  0  0
   21.2470   16.4890    5.2880 C   0  0  0  0  0  0  0  0  0  0  0  0
   19.5490   17.3260    2.1530 C   0  0  0  0  0  0  0  0  0  0  0  0
   19.9480   16.6160    3.3250 O   0  0  0  0  0  0  0  0  0  0  0  0
   21.0350   14.5670    6.8160 O   0  0  0  0  0  0  0  0  0  0  0  0
   18.9750   15.4390    6.0430 C   0  0  0  0  0  0  0  0  0  0  0  0
   18.1200   14.9740    4.8840 N   0  0  0  0  0  4  0  0  0  0  0  0
   16.8000   15.6170    4.6120 C   0  0  0  0  0  0  0  0  0  0  0  0
   15.9520   15.6900    5.8720 C   0  0  0  0  0  0  0  0  0  0  0  0
   16.0980   14.8950    3.4700 C   0  0  0  0  0  0  0  0  0  0  0  0
   20.5297   14.6703    4.7347 H   0  0  0  0  0  0  0  0  0  0  0  0
   21.4042   18.8596    2.8040 H   0  0  0  0  0  0  0  0  0  0  0  0
   23.1753   19.7555    4.3081 H   0  0  0  0  0  0  0  0  0  0  0  0
   23.7015   18.5950    6.4443 H   0  0  0  0  0  0  0  0  0  0  0  0
   22.4720   16.5305    7.0820 H   0  0  0  0  0  0  0  0  0  0  0  0
   19.0293   18.2509    2.4437 H   0  0  0  0  0  0  0  0  0  0  0  0
   20.4381   17.5772    1.5560 H   0  0  0  0  0  0  0  0  0  0  0  0
   18.8721   16.6972    1.5560 H   0  0  0  0  0  0  0  0  0  0  0  0
   20.6893   14.9776    7.6479 H   0  0  0  0  0  0  0  0  0  0  0  0
   18.7369   14.8474    6.9392 H   0  0  0  0  0  0  0  0  0  0  0  0
   18.7770   16.5006    6.2522 H   0  0  0  0  0  0  0  0  0  0  0  0
   18.6872   15.0922    4.0324 H   0  0  0  0  0  0  0  0  0  0  0  0
   17.8596   14.0157    5.1573 H   0  0  0  0  0  0  0  0  0  0  0  0
   16.9637   16.6576    4.2953 H   0  0  0  0  0  0  0  0  0  0  0  0
   16.6037   15.6339    6.7564 H   0  0  0  0  0  0  0  0  0  0  0  0
   15.3964   16.6393    5.8856 H   0  0  0  0  0  0  0  0  0  0  0  0
   15.2424   14.8496    5.8856 H   0  0  0  0  0  0  0  0  0  0  0  0
   15.3867   14.1634    3.8809 H   0  0  0  0  0  0  0  0  0  0  0  0
   15.5561   15.6261    2.8520 H   0  0  0  0  0  0  0  0  0  0  0  0
   16.8440   14.3739    2.8520 H   0  0  0  0  0  0  0  0  0  0  0  0
  3  2  2  0
  4  3  1  0
  5  4  2  0
  6  5  1  0
  7  1  1  0
  7  2  1  0
  7  6  2  0
  9  8  1  0
  9  2  1  0
 10  1  1  0
 11  1  1  0
 12 11  1  0
 13 12  1  0
 14 13  1  0
 15 13  1  0
  1 16  1  6
  3 17  1  0
  4 18  1  0
  5 19  1  0
  6 20  1  0
  8 21  1  0
  8 22  1  0
  8 23  1  0
 10 24  1  0
 11 25  1  0
 11 26  1  0
 12 27  1  0
 12 28  1  0
 13 29  1  0
 14 30  1  0
 14 31  1  0
 14 32  1  0
 15 33  1  0
 15 34  1  0
 15 35  1  0
M  CHG  1  12   1
M  END
$$$$
=
     RDKit          3D

 30 31  0  0  0  0  0  0  0  0999 V2000
   15.9840   14.3420    3.7250 N   0  0  0  0  0  0  0  0  0  0  0  0
   17.3040   14.4750    4.0910 N   0  0  0  0  0  0  0  0  0  0  0  0
   17.6470   15.4430    4.8960 C   0  0  0  0  0  0  0  0  0  0  0  0
   16.6560   16.4060    5.4430 C   0  0  0  0  0  0  0  0  0  0  0  0
   15.3790   16.2620    5.0860 C   0  0  0  0  0  0  0  0  0  0  0  0
   14.9720   15.1800    4.1760 C   0  0  0  0  0  0  0  0  0  0  0  0
   13.7990   15.0660    3.8360 O   0  0  0  0  0  0  0  0  0  0  0  0
   19.0620   15.5440    5.2480 C   0  0  0  0  0  0  0  0  0  0  0  0
   19.6800   15.0230    6.3760 C   0  0  0  0  0  0  0  0  0  0  0  0
   21.0790   15.2920    6.4210 C   0  0  0  0  0  0  0  0  0  0  0  0
   21.4960   16.0080    5.3240 C   0  0  0  0  0  0  0  0  0  0  0  0
   20.2100   16.3470    4.2570 S   0  0  0  0  0  0  0  0  0  0  0  0
   15.6750   13.1690    2.8950 C   0  0  1  0  0  0  0  0  0  0  0  0
   16.9570   12.4510    2.4650 C   0  0  0  0  0  0  0  0  0  0  0  0
   14.6750   12.2130    3.5830 C   0  0  0  0  0  0  0  0  0  0  0  0
   13.3740   12.1540    2.8510 N   0  0  0  0  0  4  0  0  0  0  0  0
   16.9665   17.2136    6.1222 H   0  0  0  0  0  0  0  0  0  0  0  0
   14.6226   16.9591    5.4758 H   0  0  0  0  0  0  0  0  0  0  0  0
   19.1452   14.4603    7.1553 H   0  0  0  0  0  0  0  0  0  0  0  0
   21.7440   14.9664    7.2344 H   0  0  0  0  0  0  0  0  0  0  0  0
   22.5358   16.3246    5.1547 H   0  0  0  0  0  0  0  0  0  0  0  0
   15.1750   13.5307    1.9844 H   0  0  0  0  0  0  0  0  0  0  0  0
   17.5182   12.1367    3.3574 H   0  0  0  0  0  0  0  0  0  0  0  0
   16.6981   11.5666    1.8643 H   0  0  0  0  0  0  0  0  0  0  0  0
   17.5758   13.1338    1.8643 H   0  0  0  0  0  0  0  0  0  0  0  0
   15.1116   11.2039    3.6159 H   0  0  0  0  0  0  0  0  0  0  0  0
   14.4809   12.5918    4.5973 H   0  0  0  0  0  0  0  0  0  0  0  0
   12.5997   12.1189    3.5293 H   0  0  0  0  0  0  0  0  0  0  0  0
   13.2746   12.9913    2.2595 H   0  0  0  0  0  0  0  0  0  0  0  0
   13.3508   11.3111    2.2595 H   0  0  0  0  0  0  0  0  0  0  0  0
  2  1  1  0
  3  2  2  0
  4  3  1  0
  5  4  2  0
  6  5  1  0
  6  1  1  0
  7  6  2  0
  8  3  1  0
  9  8  2  0
 10  9  1  0
 11 10  2  0
 12 11  1  0
 12  8  1  0
 13  1  1  0
 14 13  1  0
 15 13  1  0
 16 15  1  0
  4 17  1  0
  5 18  1  0
  9 19  1  0
 10 20  1  0
 11 21  1  0
 13 22  1  6
 14 23  1  0
 14 24  1  0
 14 25  1  0
 15 26  1  0
 15 27  1  0
 16 28  1  0
 16 29  1  0
 16 30  1  0
M  CHG  1  16   1
M  END
$$$$
=
     RDKit          3D

 43 45  0  0  0  0  0  0  0  0999 V2000
   16.9240   14.8160    4.3500 N   0  0  0  0  0  4  0  0  0  0  0  0
   13.5660   13.0480    3.9710 N   0  0  0  0  0  4  0  0  0  0  0  0
   13.7210   14.3670    4.6730 C   0  0  0  0  0  0  0  0  0  0  0  0
   14.5340   15.3660    3.8660 C   0  0  0  0  0  0  0  0  0  0  0  0
   15.8430   14.8190    3.2900 C   0  0  0  0  0  0  0  0  0  0  0  0
   15.6570   13.4520    2.6330 C   0  0  0  0  0  0  0  0  0  0  0  0
   14.8370   12.4530    3.4390 C   0  0  0  0  0  0  0  0  0  0  0  0
   11.1250   13.6940    3.5700 C   0  0  0  0  0  0  0  0  0  0  0  0
   12.3110   12.8740    3.1160 C   0  0  0  0  0  0  0  0  0  0  0  0
   18.3090   14.3630    3.9230 C   0  0  0  0  0  0  0  0  0  0  0  0
   19.4120   15.0690    4.6540 C   0  0  0  0  0  0  0  0  0  0  0  0
   19.7830   14.6610    5.9580 C   0  0  0  0  0  0  0  0  0  0  0  0
   20.8360   15.2870    6.6360 C   0  0  0  0  0  0  0  0  0  0  0  0
   21.4940   16.3130    5.9960 C   0  0  0  0  0  0  0  0  0  0  0  0
   21.1360   16.7230    4.7370 C   0  0  0  0  0  0  0  0  0  0  0  0
   20.1040   16.1300    4.0400 C   0  0  0  0  0  0  0  0  0  0  0  0
   21.9070   17.7460    4.2840 O   0  0  0  0  0  0  0  0  0  0  0  0
   22.7640   17.9730    5.4290 C   0  0  0  0  0  0  0  0  0  0  0  0
   22.5340   17.0280    6.4980 O   0  0  0  0  0  0  0  0  0  0  0  0
   17.0090   15.7775    4.7095 H   0  0  0  0  0  0  0  0  0  0  0  0
   16.6167   14.1182    5.0425 H   0  0  0  0  0  0  0  0  0  0  0  0
   13.3418   12.4089    4.7470 H   0  0  0  0  0  0  0  0  0  0  0  0
   12.7216   14.7898    4.8534 H   0  0  0  0  0  0  0  0  0  0  0  0
   14.2591   14.1824    5.6145 H   0  0  0  0  0  0  0  0  0  0  0  0
   13.9120   15.7150    3.0285 H   0  0  0  0  0  0  0  0  0  0  0  0
   14.8163   16.1681    4.5638 H   0  0  0  0  0  0  0  0  0  0  0  0
   16.1706   15.4918    2.4837 H   0  0  0  0  0  0  0  0  0  0  0  0
   15.1543   13.6042    1.6665 H   0  0  0  0  0  0  0  0  0  0  0  0
   16.6633   13.0176    2.5403 H   0  0  0  0  0  0  0  0  0  0  0  0
   14.5833   11.6009    2.7912 H   0  0  0  0  0  0  0  0  0  0  0  0
   15.4452   12.1397    4.3004 H   0  0  0  0  0  0  0  0  0  0  0  0
   11.0935   13.7158    4.6693 H   0  0  0  0  0  0  0  0  0  0  0  0
   11.2200   14.7202    3.1855 H   0  0  0  0  0  0  0  0  0  0  0  0
   10.1984   13.2427    3.1855 H   0  0  0  0  0  0  0  0  0  0  0  0
   12.0239   11.8124    3.1392 H   0  0  0  0  0  0  0  0  0  0  0  0
   12.5683   13.2279    2.1068 H   0  0  0  0  0  0  0  0  0  0  0  0
   18.3981   13.2833    4.1136 H   0  0  0  0  0  0  0  0  0  0  0  0
   18.4174   14.6039    2.8552 H   0  0  0  0  0  0  0  0  0  0  0  0
   19.2361   13.8404    6.4455 H   0  0  0  0  0  0  0  0  0  0  0  0
   21.1282   14.9692    7.6477 H   0  0  0  0  0  0  0  0  0  0  0  0
   19.8295   16.4764    3.0327 H   0  0  0  0  0  0  0  0  0  0  0  0
   23.8120   17.8892    5.1055 H   0  0  0  0  0  0  0  0  0  0  0  0
   22.5358   18.9758    5.8193 H   0  0  0  0  0  0  0  0  0  0  0  0
  3  2  1  0
  4  3  1  0
  5  4  1  0
  5  1  1  0
  6  5  1  0
  7  6  1  0
  7  2  1  0
  9  8  1  0
  9  2  1  0
 10  1  1  0
 11 10  1  0
 12 11  2  0
 13 12  1  0
 14 13  2  0
 15 14  1  0
 16 11  1  0
 16 15  2  0
 17 15  1  0
 18 17  1  0
 19 14  1  0
 19 18  1  0
  1 20  1  0
  1 21  1  0
  2 22  1  0
  3 23  1  0
  3 24  1  0
  4 25  1  0
  4 26  1  0
  5 27  1  0
  6 28  1  0
  6 29  1  0
  7 30  1  0
  7 31  1  0
  8 32  1  0
  8 33  1  0
  8 34  1  0
  9 35  1  0
  9 36  1  0
 10 37  1  0
 10 38  1  0
 12 39  1  0
 13 40  1  0
 16 41  1  0
 18 42  1  0
 18 43  1  0
M  CHG  2   1   1   2   1
M  END
$$$$
=
     RDKit          3D

 53 54  0  0  0  0  0  0  0  0999 V2000
   15.2280   12.7460    2.5300 C   0  0  0  0  0  0  0  0  0  0  0  0
   16.7230   12.6950    2.8560 C   0  0  0  0  0  0  0  0  0  0  0  0
   16.4130   14.8550    3.8490 O   0  0  0  0  0  0  0  0  0  0  0  0
   17.2080   14.0150    3.4410 C   0  0  0  0  0  0  0  0  0  0  0  0
   18.5860   14.1250    3.3980 N   0  0  0  0  0  0  0  0  0  0  0  0
   19.3730   15.2100    3.8390 C   0  0  0  0  0  0  0  0  0  0  0  0
   19.4950   16.4190    3.1530 C   0  0  0  0  0  0  0  0  0  0  0  0
   20.2990   17.4470    3.6590 C   0  0  0  0  0  0  0  0  0  0  0  0
   20.9920   17.2890    4.8660 C   0  0  0  0  0  0  0  0  0  0  0  0
   20.8750   16.0720    5.5500 C   0  0  0  0  0  0  0  0  0  0  0  0
   20.0710   15.0460    5.0420 C   0  0  0  0  0  0  0  0  0  0  0  0
   21.8770   18.3900    5.3980 C   0  0  0  0  0  0  0  0  0  0  0  0
   22.5410   19.0600    4.4160 F   0  0  0  0  0  0  0  0  0  0  0  0
   22.8340   17.9400    6.2560 F   0  0  0  0  0  0  0  0  0  0  0  0
   21.1710   19.3320    6.0830 F   0  0  0  0  0  0  0  0  0  0  0  0
   14.3840   12.0170    3.5700 C   0  0  0  0  0  0  0  0  0  0  0  0
   13.1450   12.7860    4.0550 C   0  0  0  0  0  0  0  0  0  0  0  0
   12.0610   13.2180    3.0430 C   0  0  1  0  0  0  0  0  0  0  0  0
   11.3290   12.0440    2.4000 C   0  0  0  0  0  0  0  0  0  0  0  0
   11.0850   14.1470    3.7110 N   0  0  0  0  0  4  0  0  0  0  0  0
   10.8920   14.0160    5.2030 C   0  0  0  0  0  0  0  0  0  0  0  0
    9.4390   13.7430    5.6000 C   0  0  0  0  0  0  0  0  0  0  0  0
    8.5100   13.5310    4.4580 C   0  0  0  0  0  0  0  0  0  0  0  0
    7.9070   12.3620    4.0480 C   0  0  0  0  0  0  0  0  0  0  0  0
    7.1940   12.6920    2.9270 N   0  0  0  0  0  0  0  0  0  0  0  0
    7.3780   14.0280    2.7080 C   0  0  0  0  0  0  0  0  0  0  0  0
    8.1580   14.5620    3.6210 N   0  0  0  0  0  0  0  0  0  0  0  0
   14.9101   13.7983    2.4909 H   0  0  0  0  0  0  0  0  0  0  0  0
   15.0771   12.2447    1.5626 H   0  0  0  0  0  0  0  0  0  0  0  0
   16.9032   11.8920    3.5859 H   0  0  0  0  0  0  0  0  0  0  0  0
   17.2750   12.5051    1.9237 H   0  0  0  0  0  0  0  0  0  0  0  0
   19.0957   13.3239    2.9987 H   0  0  0  0  0  0  0  0  0  0  0  0
   18.9545   16.5655    2.2062 H   0  0  0  0  0  0  0  0  0  0  0  0
   20.3878   18.3911    3.1016 H   0  0  0  0  0  0  0  0  0  0  0  0
   21.4196   15.9220    6.4939 H   0  0  0  0  0  0  0  0  0  0  0  0
   19.9860   14.0986    5.5944 H   0  0  0  0  0  0  0  0  0  0  0  0
   14.0457   11.0672    3.1302 H   0  0  0  0  0  0  0  0  0  0  0  0
   15.0286   11.8847    4.4515 H   0  0  0  0  0  0  0  0  0  0  0  0
   12.6475   12.1490    4.8012 H   0  0  0  0  0  0  0  0  0  0  0  0
   13.5610   13.7424    4.4047 H   0  0  0  0  0  0  0  0  0  0  0  0
   12.5771   13.7396    2.2235 H   0  0  0  0  0  0  0  0  0  0  0  0
   10.9218   11.3909    3.1859 H   0  0  0  0  0  0  0  0  0  0  0  0
   10.5066   12.4225    1.7752 H   0  0  0  0  0  0  0  0  0  0  0  0
   12.0308   11.4721    1.7752 H   0  0  0  0  0  0  0  0  0  0  0  0
   11.4020   15.1094    3.5261 H   0  0  0  0  0  0  0  0  0  0  0  0
   10.1711   13.8935    3.3093 H   0  0  0  0  0  0  0  0  0  0  0  0
   11.5156   13.1852    5.5648 H   0  0  0  0  0  0  0  0  0  0  0  0
   11.1805   14.9759    5.6561 H   0  0  0  0  0  0  0  0  0  0  0  0
    9.4198   12.8407    6.2289 H   0  0  0  0  0  0  0  0  0  0  0  0
    9.0863   14.6441    6.1231 H   0  0  0  0  0  0  0  0  0  0  0  0
    7.9826   11.3721    4.5217 H   0  0  0  0  0  0  0  0  0  0  0  0
    6.6246   12.0521    2.3550 H   0  0  0  0  0  0  0  0  0  0  0  0
    6.9298   14.5862    1.8728 H   0  0  0  0  0  0  0  0  0  0  0  0
  2  1  1  0
  4  3  2  0
  4  2  1  0
  5  4  1  0
  6  5  1  0
  7  6  2  0
  8  7  1  0
  9  8  2  0
 10  9  1  0
 11  6  1  0
 11 10  2  0
 12  9  1  0
 13 12  1  0
 14 12  1  0
 15 12  1  0
 16  1  1  0
 17 16  1  0
 18 17  1  0
 19 18  1  0
 20 18  1  0
 21 20  1  0
 22 21  1  0
 23 22  1  0
 24 23  2  0
 25 24  1  0
 26 25  1  0
 27 26  2  0
 27 23  1  0
  1 28  1  0
  1 29  1  0
  2 30  1  0
  2 31  1  0
  5 32  1  0
  7 33  1  0
  8 34  1  0
 10 35  1  0
 11 36  1  0
 16 37  1  0
 16 38  1  0
 17 39  1  0
 17 40  1  0
 18 41  1  6
 19 42  1  0
 19 43  1  0
 19 44  1  0
 20 45  1  0
 20 46  1  0
 21 47  1  0
 21 48  1  0
 22 49  1  0
 22 50  1  0
 24 51  1  0
 25 52  1  0
 26 53  1  0
M  CHG  1  20   1
M  END
$$$$
=
     RDKit          3D

 44 44  0  0  0  0  0  0  0  0999 V2000
   18.8910   17.2870    4.3960 C   0  0  0  0  0  0  0  0  0  0  0  0
   18.1040   17.6580    5.4880 C   0  0  0  0  0  0  0  0  0  0  0  0
   16.9380   16.9580    5.8040 C   0  0  0  0  0  0  0  0  0  0  0  0
   16.5360   15.8670    5.0210 C   0  0  0  0  0  0  0  0  0  0  0  0
   17.3190   15.5070    3.9160 C   0  0  0  0  0  0  0  0  0  0  0  0
   18.4880   16.2140    3.6050 C   0  0  0  0  0  0  0  0  0  0  0  0
   20.0010   18.0600    4.2120 O   0  0  0  0  0  0  0  0  0  0  0  0
   21.2860   17.4740    4.4190 C   0  0  0  0  0  0  0  0  0  0  0  0
   21.8130   17.7700    5.8210 C   0  0  0  0  0  0  0  0  0  0  0  0
   22.0760   16.5350    6.4840 O   0  0  0  0  0  0  0  0  0  0  0  0
   20.3610   14.8180    6.6570 C   0  0  0  0  0  0  0  0  0  0  0  0
   21.4900   15.4080    5.8320 C   0  0  0  0  0  0  0  0  0  0  0  0
   15.3090   15.0800    5.3810 C   0  0  0  0  0  0  0  0  0  0  0  0
   14.4180   14.8140    4.2080 N   0  0  0  0  0  4  0  0  0  0  0  0
   14.0180   13.3860    3.9440 C   0  0  2  0  0  0  0  0  0  0  0  0
   14.8960   12.8080    2.8380 C   0  0  0  0  0  0  0  0  0  0  0  0
   12.5380   13.3500    3.5270 C   0  0  0  0  0  0  0  0  0  0  0  0
   11.6560   14.3150    4.3080 C   0  0  0  0  0  0  0  0  0  0  0  0
   18.4070   18.5143    6.1084 H   0  0  0  0  0  0  0  0  0  0  0  0
   16.3328   17.2636    6.6702 H   0  0  0  0  0  0  0  0  0  0  0  0
   17.0123   14.6595    3.2854 H   0  0  0  0  0  0  0  0  0  0  0  0
   19.0900   15.9203    2.7324 H   0  0  0  0  0  0  0  0  0  0  0  0
   21.2079   16.3846    4.2884 H   0  0  0  0  0  0  0  0  0  0  0  0
   21.9854   17.9052    3.6877 H   0  0  0  0  0  0  0  0  0  0  0  0
   22.7408   18.3567    5.7508 H   0  0  0  0  0  0  0  0  0  0  0  0
   21.0660   18.3460    6.3869 H   0  0  0  0  0  0  0  0  0  0  0  0
   20.5879   14.9366    7.7268 H   0  0  0  0  0  0  0  0  0  0  0  0
   19.4224   15.3409    6.4211 H   0  0  0  0  0  0  0  0  0  0  0  0
   20.2544   13.7489    6.4211 H   0  0  0  0  0  0  0  0  0  0  0  0
   22.2627   14.6398    5.6811 H   0  0  0  0  0  0  0  0  0  0  0  0
   21.0779   15.7407    4.8679 H   0  0  0  0  0  0  0  0  0  0  0  0
   15.6237   14.1161    5.8075 H   0  0  0  0  0  0  0  0  0  0  0  0
   14.7335   15.6802    6.1011 H   0  0  0  0  0  0  0  0  0  0  0  0
   13.5530   15.3549    4.3495 H   0  0  0  0  0  0  0  0  0  0  0  0
   14.9792   15.0837    3.3875 H   0  0  0  0  0  0  0  0  0  0  0  0
   14.1523   12.7814    4.8531 H   0  0  0  0  0  0  0  0  0  0  0  0
   15.7349   12.2558    3.2867 H   0  0  0  0  0  0  0  0  0  0  0  0
   14.2992   12.1256    2.2150 H   0  0  0  0  0  0  0  0  0  0  0  0
   15.2869   13.6260    2.2150 H   0  0  0  0  0  0  0  0  0  0  0  0
   12.4721   13.6065    2.4594 H   0  0  0  0  0  0  0  0  0  0  0  0
   12.1697   12.3355    3.7397 H   0  0  0  0  0  0  0  0  0  0  0  0
   11.8025   14.1548    5.3864 H   0  0  0  0  0  0  0  0  0  0  0  0
   11.9272   15.3496    4.0509 H   0  0  0  0  0  0  0  0  0  0  0  0
   10.6013   14.1377    4.0509 H   0  0  0  0  0  0  0  0  0  0  0  0
  2  1  2  0
  3  2  1  0
  4  3  2  0
  5  4  1  0
  6  5  2  0
  6  1  1  0
  7  1  1  0
  8  7  1  0
  9  8  1  0
 10  9  1  0
 12 11  1  0
 12 10  1  0
 13  4  1  0
 14 13  1  0
 15 14  1  0
 16 15  1  0
 17 15  1  0
 18 17  1  0
  2 19  1  0
  3 20  1  0
  5 21  1  0
  6 22  1  0
  8 23  1  0
  8 24  1  0
  9 25  1  0
  9 26  1  0
 11 27  1  0
 11 28  1  0
 11 29  1  0
 12 30  1  0
 12 31  1  0
 13 32  1  0
 13 33  1  0
 14 34  1  0
 14 35  1  0
 15 36  1  1
 16 37  1  0
 16 38  1  0
 16 39  1  0
 17 40  1  0
 17 41  1  0
 18 42  1  0
 18 43  1  0
 18 44  1  0
M  CHG  1  14   1
M  END
$$$$
=
     RDKit          3D

 31 32  0  0  0  0  0  0  0  0999 V2000
   19.2420   18.4110    5.5710 C   0  0  0  0  0  0  0  0  0  0  0  0
   20.3060   17.3250    5.3160 C   0  0  2  0  0  0  0  0  0  0  0  0
   21.6070   17.6460    6.0540 C   0  0  0  0  0  0  0  0  0  0  0  0
   22.2750   18.6810    5.1940 N   0  0  0  0  0  4  0  0  0  0  0  0
   21.7500   18.5520    3.7940 C   0  0  0  0  0  0  0  0  0  0  0  0
   20.7780   17.3830    3.8510 C   0  0  0  0  0  0  0  0  0  0  0  0
   19.7620   15.9160    5.6550 C   0  0  0  0  0  0  0  0  0  0  0  0
   18.2940   15.7180    5.3670 C   0  0  0  0  0  0  0  0  0  0  0  0
   17.3410   15.8540    6.3870 C   0  0  0  0  0  0  0  0  0  0  0  0
   15.9860   15.6490    6.1240 C   0  0  0  0  0  0  0  0  0  0  0  0
   15.5660   15.3150    4.8370 C   0  0  0  0  0  0  0  0  0  0  0  0
   16.5010   15.1960    3.8120 C   0  0  0  0  0  0  0  0  0  0  0  0
   17.8570   15.4010    4.0730 C   0  0  0  0  0  0  0  0  0  0  0  0
   19.1090   18.5468    6.6545 H   0  0  0  0  0  0  0  0  0  0  0  0
   19.5704   19.3591    5.1202 H   0  0  0  0  0  0  0  0  0  0  0  0
   18.2874   18.1020    5.1202 H   0  0  0  0  0  0  0  0  0  0  0  0
   21.3976   18.0481    7.0562 H   0  0  0  0  0  0  0  0  0  0  0  0
   22.2353   16.7559    6.2055 H   0  0  0  0  0  0  0  0  0  0  0  0
   22.0659   19.6217    5.5576 H   0  0  0  0  0  0  0  0  0  0  0  0
   23.2952   18.5394    5.2015 H   0  0  0  0  0  0  0  0  0  0  0  0
   21.2316   19.4727    3.4879 H   0  0  0  0  0  0  0  0  0  0  0  0
   22.5544   18.3885    3.0618 H   0  0  0  0  0  0  0  0  0  0  0  0
   19.9259   17.5560    3.1773 H   0  0  0  0  0  0  0  0  0  0  0  0
   21.2472   16.4408    3.5314 H   0  0  0  0  0  0  0  0  0  0  0  0
   20.3286   15.1797    5.0661 H   0  0  0  0  0  0  0  0  0  0  0  0
   19.8841   15.7900    6.7409 H   0  0  0  0  0  0  0  0  0  0  0  0
   17.6645   16.1246    7.4030 H   0  0  0  0  0  0  0  0  0  0  0  0
   15.2480   15.7511    6.9333 H   0  0  0  0  0  0  0  0  0  0  0  0
   14.4986   15.1459    4.6319 H   0  0  0  0  0  0  0  0  0  0  0  0
   16.1705   14.9399    2.7946 H   0  0  0  0  0  0  0  0  0  0  0  0
   18.5889   15.3131    3.2565 H   0  0  0  0  0  0  0  0  0  0  0  0
  2  1  1  6
  3  2  1  0
  4  3  1  0
  5  4  1  0
  6  5  1  0
  6  2  1  0
  7  2  1  0
  8  7  1  0
  9  8  2  0
 10  9  1  0
 11 10  2  0
 12 11  1  0
 13 12  2  0
 13  8  1  0
  1 14  1  0
  1 15  1  0
  1 16  1  0
  3 17  1  0
  3 18  1  0
  4 19  1  0
  4 20  1  0
  5 21  1  0
  5 22  1  0
  6 23  1  0
  6 24  1  0
  7 25  1  0
  7 26  1  0
  9 27  1  0
 10 28  1  0
 11 29  1  0
 12 30  1  0
 13 31  1  0
M  CHG  1   4   1
M  END
$$$$
=
     RDKit          3D

 23 24  0  0  0  0  0  0  0  0999 V2000
   22.5610   16.9090    6.5150 O   0  0  0  0  0  0  0  0  0  0  0  0
   21.5410   16.3220    6.2260 C   0  0  0  0  0  0  0  0  0  0  0  0
   21.0890   15.1170    6.7480 N   0  0  0  0  0  0  0  0  0  0  0  0
   19.8810   14.6510    6.1130 C   0  0  0  0  0  0  0  0  0  0  0  0
   19.9120   15.4310    4.8120 C   0  0  2  0  0  0  0  0  0  0  0  0
   20.4740   16.7800    5.2690 C   0  0  2  0  0  0  0  0  0  0  0  0
   20.8680   17.6190    4.0730 C   0  0  0  0  0  0  0  0  0  0  0  0
   19.6320   17.8490    3.2040 C   0  0  0  0  0  0  0  0  0  0  0  0
   18.9630   16.5400    2.8730 N   0  0  0  0  0  4  0  0  0  0  0  0
   18.6290   15.6560    4.0530 C   0  0  0  0  0  0  0  0  0  0  0  0
   21.5657   14.6103    7.5076 H   0  0  0  0  0  0  0  0  0  0  0  0
   19.9127   13.5662    5.9335 H   0  0  0  0  0  0  0  0  0  0  0  0
   18.9695   14.8041    6.7095 H   0  0  0  0  0  0  0  0  0  0  0  0
   20.4823   14.8474    4.0743 H   0  0  0  0  0  0  0  0  0  0  0  0
   19.7998   17.4861    5.7758 H   0  0  0  0  0  0  0  0  0  0  0  0
   21.2649   18.5863    4.4146 H   0  0  0  0  0  0  0  0  0  0  0  0
   21.6428   17.0989    3.4906 H   0  0  0  0  0  0  0  0  0  0  0  0
   18.9224   18.4899    3.7478 H   0  0  0  0  0  0  0  0  0  0  0  0
   19.9435   18.3340    2.2671 H   0  0  0  0  0  0  0  0  0  0  0  0
   18.0852   16.7501    2.3769 H   0  0  0  0  0  0  0  0  0  0  0  0
   19.6451   16.0111    2.3109 H   0  0  0  0  0  0  0  0  0  0  0  0
   18.2239   14.6952    3.7026 H   0  0  0  0  0  0  0  0  0  0  0  0
   17.8706   16.1280    4.6950 H   0  0  0  0  0  0  0  0  0  0  0  0
  2  1  2  0
  3  2  1  0
  4  3  1  0
  5  4  1  0
  6  5  1  0
  6  2  1  0
  7  6  1  0
  8  7  1  0
  9  8  1  0
 10  5  1  0
 10  9  1  0
  3 11  1  0
  4 12  1  0
  4 13  1  0
  5 14  1  6
  6 15  1  1
  7 16  1  0
  7 17  1  0
  8 18  1  0
  8 19  1  0
  9 20  1  0
  9 21  1  0
 10 22  1  0
 10 23  1  0
M  CHG  1   9   1
M  END
$$$$
=
     RDKit          3D

 34 35  0  0  0  0  0  0  0  0999 V2000
   16.7210   16.5200    4.7480 N   0  0  0  0  0  4  0  0  0  0  0  0
   17.9370   16.8030    5.5890 C   0  0  0  0  0  0  0  0  0  0  0  0
   19.0720   17.3610    4.7300 C   0  0  0  0  0  0  0  0  0  0  0  0
   19.5680   16.3750    3.6690 C   0  0  0  0  0  0  0  0  0  0  0  0
   19.5220   14.9150    4.1190 C   0  0  0  0  0  0  0  0  0  0  0  0
   19.5310   14.7760    5.6340 C   0  0  0  0  0  0  0  0  0  0  0  0
   18.3560   15.5030    6.2980 C   0  0  0  0  0  0  0  0  0  0  0  0
   15.6160   15.7650    5.4100 C   0  0  0  0  0  0  0  0  0  0  0  0
   16.3160   12.5220    1.8370 F   0  0  0  0  0  0  0  0  0  0  0  0
   15.4830   13.0880    2.7190 C   0  0  0  0  0  0  0  0  0  0  0  0
   14.1520   12.6980    2.7570 C   0  0  0  0  0  0  0  0  0  0  0  0
   13.2890   13.2950    3.6730 C   0  0  0  0  0  0  0  0  0  0  0  0
   13.7640   14.2810    4.5430 C   0  0  0  0  0  0  0  0  0  0  0  0
   15.1120   14.6740    4.5090 C   0  0  0  0  0  0  0  0  0  0  0  0
   15.9700   14.0680    3.5800 C   0  0  0  0  0  0  0  0  0  0  0  0
   16.3392   17.4240    4.4353 H   0  0  0  0  0  0  0  0  0  0  0  0
   17.0512   15.9097    3.9868 H   0  0  0  0  0  0  0  0  0  0  0  0
   17.7003   17.5671    6.3440 H   0  0  0  0  0  0  0  0  0  0  0  0
   18.7125   18.2685    4.2227 H   0  0  0  0  0  0  0  0  0  0  0  0
   19.9175   17.5698    5.4020 H   0  0  0  0  0  0  0  0  0  0  0  0
   18.9384   16.4825    2.7734 H   0  0  0  0  0  0  0  0  0  0  0  0
   20.6226   16.6179    3.4718 H   0  0  0  0  0  0  0  0  0  0  0  0
   18.6039   14.4530    3.7271 H   0  0  0  0  0  0  0  0  0  0  0  0
   20.4215   14.4151    3.7304 H   0  0  0  0  0  0  0  0  0  0  0  0
   19.4750   13.7078    5.8904 H   0  0  0  0  0  0  0  0  0  0  0  0
   20.4597   15.2335    6.0058 H   0  0  0  0  0  0  0  0  0  0  0  0
   17.4917   14.8226    6.3101 H   0  0  0  0  0  0  0  0  0  0  0  0
   18.6892   15.7865    7.3073 H   0  0  0  0  0  0  0  0  0  0  0  0
   15.9902   15.3197    6.3436 H   0  0  0  0  0  0  0  0  0  0  0  0
   14.7900   16.4587    5.6257 H   0  0  0  0  0  0  0  0  0  0  0  0
   13.7813   11.9236    2.0693 H   0  0  0  0  0  0  0  0  0  0  0  0
   12.2327   12.9904    3.7119 H   0  0  0  0  0  0  0  0  0  0  0  0
   13.0762   14.7529    5.2601 H   0  0  0  0  0  0  0  0  0  0  0  0
   17.0275   14.3668    3.5315 H   0  0  0  0  0  0  0  0  0  0  0  0
  2  1  1  0
  3  2  1  0
  4  3  1  0
  5  4  1  0
  6  5  1  0
  7  6  1  0
  7  2  1  0
  8  1  1  0
 10  9  1  0
 11 10  2  0
 12 11  1  0
 13 12  2  0
 14 13  1  0
 14  8  1  0
 15 14  2  0
 15 10  1  0
  1 16  1  0
  1 17  1  0
  2 18  1  0
  3 19  1  0
  3 20  1  0
  4 21  1  0
  4 22  1  0
  5 23  1  0
  5 24  1  0
  6 25  1  0
  6 26  1  0
  7 27  1  0
  7 28  1  0
  8 29  1  0
  8 30  1  0
 11 31  1  0
 12 32  1  0
 13 33  1  0
 15 34  1  0
M  CHG  1   1   1
M  END
$$$$
=
     RDKit          3D

 29 29  0  0  0  0  0  0  0  0999 V2000
   19.2770   16.2120    4.0030 S   0  0  0  0  0  6  0  0  0  0  0  0
   19.9970   15.0340    3.5480 O   0  0  0  0  0  0  0  0  0  0  0  0
   19.2290   17.4050    3.1960 O   0  0  0  0  0  0  0  0  0  0  0  0
   17.6260   15.7510    4.4530 C   0  0  0  0  0  0  0  0  0  0  0  0
   17.1470   16.0260    5.7410 C   0  0  0  0  0  0  0  0  0  0  0  0
   15.8530   15.6350    6.0890 C   0  0  0  0  0  0  0  0  0  0  0  0
   15.0630   14.9620    5.1610 C   0  0  0  0  0  0  0  0  0  0  0  0
   15.5450   14.6610    3.8910 C   0  0  0  0  0  0  0  0  0  0  0  0
   16.8370   15.0480    3.5340 C   0  0  0  0  0  0  0  0  0  0  0  0
   13.8230   14.5910    5.5010 F   0  0  0  0  0  0  0  0  0  0  0  0
   20.0300   16.6030    5.4780 N   0  0  0  0  0  0  0  0  0  0  0  0
   20.7210   15.4970    6.1810 C   0  0  0  0  0  0  0  0  0  0  0  0
   20.7190   17.9190    5.6000 C   0  0  0  0  0  0  0  0  0  0  0  0
   22.1560   17.8180    5.0470 C   0  0  0  0  0  0  0  0  0  0  0  0
   23.1600   18.3440    6.0090 N   0  0  0  0  0  4  0  0  0  0  0  0
   17.7851   16.5453    6.4712 H   0  0  0  0  0  0  0  0  0  0  0  0
   15.4593   15.8576    7.0917 H   0  0  0  0  0  0  0  0  0  0  0  0
   14.9110   14.1209    3.1724 H   0  0  0  0  0  0  0  0  0  0  0  0
   17.2332   14.8026    2.5376 H   0  0  0  0  0  0  0  0  0  0  0  0
   20.6313   15.6406    7.2679 H   0  0  0  0  0  0  0  0  0  0  0  0
   20.2607   14.5387    5.8985 H   0  0  0  0  0  0  0  0  0  0  0  0
   21.7841   15.4905    5.8985 H   0  0  0  0  0  0  0  0  0  0  0  0
   20.1616   18.6759    5.0287 H   0  0  0  0  0  0  0  0  0  0  0  0
   20.7607   18.2068    6.6609 H   0  0  0  0  0  0  0  0  0  0  0  0
   22.3830   16.7621    4.8383 H   0  0  0  0  0  0  0  0  0  0  0  0
   22.2116   18.4249    4.1313 H   0  0  0  0  0  0  0  0  0  0  0  0
   22.8352   18.1739    6.9715 H   0  0  0  0  0  0  0  0  0  0  0  0
   24.0605   17.8663    5.8610 H   0  0  0  0  0  0  0  0  0  0  0  0
   23.2799   19.3562    5.8610 H   0  0  0  0  0  0  0  0  0  0  0  0
  2  1  2  0
  3  1  2  0
  4  1  1  0
  5  4  2  0
  6  5  1  0
  7  6  2  0
  8  7  1  0
  9  8  2  0
  9  4  1  0
 10  7  1  0
 11  1  1  0
 12 11  1  0
 13 11  1  0
 14 13  1  0
 15 14  1  0
  5 16  1  0
  6 17  1  0
  8 18  1  0
  9 19  1  0
 12 20  1  0
 12 21  1  0
 12 22  1  0
 13 23  1  0
 13 24  1  0
 14 25  1  0
 14 26  1  0
 15 27  1  0
 15 28  1  0
 15 29  1  0
M  CHG  1  15   1
M  END
$$$$
=
     RDKit          3D

 24 25  0  0  0  0  0  0  0  0999 V2000
   20.5070   17.6090    4.6120 C   0  0  0  0  0  0  0  0  0  0  0  0
   19.2740   18.0480    4.7900 N   0  0  0  0  0  0  0  0  0  0  0  0
   18.6780   17.0310    5.4920 C   0  0  0  0  0  0  0  0  0  0  0  0
   19.4780   15.9930    5.7450 N   0  0  0  0  0  0  0  0  0  0  0  0
   20.6340   16.3750    5.1870 N   0  0  0  0  0  0  0  0  0  0  0  0
   21.7760   15.4990    5.2560 C   0  0  0  0  0  0  0  0  0  0  0  0
   17.1960   17.0750    5.9470 C   0  0  0  0  0  0  0  0  0  0  0  0
   16.1650   16.3080    5.1600 C   0  0  0  0  0  0  0  0  0  0  0  0
   16.5630   15.8370    6.5290 C   0  0  0  0  0  0  0  0  0  0  0  0
   21.5660   18.3510    3.9000 C   0  0  0  0  0  0  0  0  0  0  0  0
   22.4140   19.0560    4.8960 N   0  0  0  0  0  4  0  0  0  0  0  0
   22.0272   15.3063    6.3095 H   0  0  0  0  0  0  0  0  0  0  0  0
   21.5397   14.5483    4.7556 H   0  0  0  0  0  0  0  0  0  0  0  0
   22.6329   15.9736    4.7556 H   0  0  0  0  0  0  0  0  0  0  0  0
   17.3101   18.1182    6.2768 H   0  0  0  0  0  0  0  0  0  0  0  0
   15.1664   16.7390    4.9958 H   0  0  0  0  0  0  0  0  0  0  0  0
   16.1327   15.8510    4.1600 H   0  0  0  0  0  0  0  0  0  0  0  0
   15.8559   15.9233    7.3672 H   0  0  0  0  0  0  0  0  0  0  0  0
   16.9428   14.8926    6.9461 H   0  0  0  0  0  0  0  0  0  0  0  0
   22.1834   17.6485    3.3210 H   0  0  0  0  0  0  0  0  0  0  0  0
   21.1120   19.0814    3.2141 H   0  0  0  0  0  0  0  0  0  0  0  0
   22.1094   18.8028    5.8468 H   0  0  0  0  0  0  0  0  0  0  0  0
   23.3978   18.7803    4.7658 H   0  0  0  0  0  0  0  0  0  0  0  0
   22.3225   20.0736    4.7658 H   0  0  0  0  0  0  0  0  0  0  0  0
  2  1  2  0
  3  2  1  0
  4  3  2  0
  5  4  1  0
  5  1  1  0
  6  5  1  0
  7  3  1  0
  8  7  1  0
  9  8  1  0
  9  7  1  0
 10  1  1  0
 11 10  1  0
  6 12  1  0
  6 13  1  0
  6 14  1  0
  7 15  1  0
  8 16  1  0
  8 17  1  0
  9 18  1  0
  9 19  1  0
 10 20  1  0
 10 21  1  0
 11 22  1  0
 11 23  1  0
 11 24  1  0
M  CHG  1  11   1
M  END
$$$$
=
     RDKit          3D

 30 29  0  0  0  0  0  0  0  0999 V2000
   18.3600   15.6660    3.7010 C   0  0  1  0  0  0  0  0  0  0  0  0
   17.0180   15.7470    4.2040 O   0  0  0  0  0  0  0  0  0  0  0  0
   16.4300   15.7320    6.5220 C   0  0  0  0  0  0  0  0  0  0  0  0
   16.8790   16.5900    5.3570 C   0  0  0  0  0  0  0  0  0  0  0  0
   19.2560   16.7530    4.3630 C   0  0  0  0  0  0  0  0  0  0  0  0
   19.9010   17.7540    3.4190 N   0  0  0  0  0  4  0  0  0  0  0  0
   21.3180   18.1360    3.7470 C   0  0  0  0  0  0  0  0  0  0  0  0
   19.7120   17.4640    1.9500 C   0  0  0  0  0  0  0  0  0  0  0  0
   18.9210   14.2740    4.0940 C   0  0  0  0  0  0  0  0  0  0  0  0
   18.6580   13.2580    3.0350 N   0  0  0  0  0  4  0  0  0  0  0  0
   18.3575   15.8168    2.6114 H   0  0  0  0  0  0  0  0  0  0  0  0
   16.6911   16.2310    7.4669 H   0  0  0  0  0  0  0  0  0  0  0  0
   15.3407   15.5874    6.4725 H   0  0  0  0  0  0  0  0  0  0  0  0
   16.9322   14.7546    6.4725 H   0  0  0  0  0  0  0  0  0  0  0  0
   17.8450   17.0607    5.5923 H   0  0  0  0  0  0  0  0  0  0  0  0
   16.1397   17.3807    5.1615 H   0  0  0  0  0  0  0  0  0  0  0  0
   18.6326   17.3151    5.0739 H   0  0  0  0  0  0  0  0  0  0  0  0
   20.0895   16.2058    4.8277 H   0  0  0  0  0  0  0  0  0  0  0  0
   19.3447   18.5998    3.6089 H   0  0  0  0  0  0  0  0  0  0  0  0
   21.4451   18.1703    4.8391 H   0  0  0  0  0  0  0  0  0  0  0  0
   22.0065   17.3914    3.3209 H   0  0  0  0  0  0  0  0  0  0  0  0
   21.5389   19.1258    3.3209 H   0  0  0  0  0  0  0  0  0  0  0  0
   19.1149   16.5478    1.8310 H   0  0  0  0  0  0  0  0  0  0  0  0
   19.1892   18.3068    1.4742 H   0  0  0  0  0  0  0  0  0  0  0  0
   20.6941   17.3260    1.4742 H   0  0  0  0  0  0  0  0  0  0  0  0
   20.0071   14.3570    4.2473 H   0  0  0  0  0  0  0  0  0  0  0  0
   18.4181   13.9480    5.0164 H   0  0  0  0  0  0  0  0  0  0  0  0
   18.4246   12.3563    3.4747 H   0  0  0  0  0  0  0  0  0  0  0  0
   17.8697   13.5687    2.4494 H   0  0  0  0  0  0  0  0  0  0  0  0
   19.4980   13.1472    2.4494 H   0  0  0  0  0  0  0  0  0  0  0  0
  2  1  1  0
  4  2  1  0
  4  3  1  0
  5  1  1  0
  6  5  1  0
  7  6  1  0
  8  6  1  0
  9  1  1  0
 10  9  1  0
  1 11  1  6
  3 12  1  0
  3 13  1  0
  3 14  1  0
  4 15  1  0
  4 16  1  0
  5 17  1  0
  5 18  1  0
  6 19  1  0
  7 20  1  0
  7 21  1  0
  7 22  1  0
  8 23  1  0
  8 24  1  0
  8 25  1  0
  9 26  1  0
  9 27  1  0
 10 28  1  0
 10 29  1  0
 10 30  1  0
M  CHG  2   6   1  10   1
M  END
$$$$
=
     RDKit          3D

 42 43  0  0  0  0  0  0  0  0999 V2000
   16.1630   15.0700    3.9580 C   0  0  0  0  0  0  0  0  0  0  0  0
   16.2340   15.0530    2.7310 O   0  0  0  0  0  0  0  0  0  0  0  0
   15.0830   14.6460    4.7150 N   0  0  0  0  0  0  0  0  0  0  0  0
   13.8570   14.1260    4.2610 C   0  0  0  0  0  0  0  0  0  0  0  0
   13.7370   13.0020    3.4450 C   0  0  0  0  0  0  0  0  0  0  0  0
   12.4760   12.5540    3.0340 C   0  0  0  0  0  0  0  0  0  0  0  0
   11.3100   13.2220    3.4280 C   0  0  0  0  0  0  0  0  0  0  0  0
   11.4300   14.3470    4.2410 C   0  0  0  0  0  0  0  0  0  0  0  0
   12.6930   14.7940    4.6540 C   0  0  0  0  0  0  0  0  0  0  0  0
   10.0820   12.7040    2.9690 N   0  0  0  0  0  0  0  0  0  0  0  0
    8.9280   13.4080    2.6780 C   0  0  0  0  0  0  0  0  0  0  0  0
    8.7540   14.6170    2.7790 O   0  0  0  0  0  0  0  0  0  0  0  0
    7.8100   12.5040    2.2210 C   0  0  0  0  0  0  0  0  0  0  0  0
   16.8930   15.7720    6.2490 C   0  0  0  0  0  0  0  0  0  0  0  0
   17.3070   15.6740    4.7840 C   0  0  1  0  0  0  0  0  0  0  0  0
   18.8270   14.6470    4.6020 S   0  0  0  0  0  0  0  0  0  0  0  0
   20.0830   15.9060    4.7220 C   0  0  0  0  0  0  0  0  0  0  0  0
   21.0990   15.8300    5.6760 C   0  0  0  0  0  0  0  0  0  0  0  0
   22.0670   16.8370    5.7550 C   0  0  0  0  0  0  0  0  0  0  0  0
   22.0550   17.9140    4.8670 C   0  0  0  0  0  0  0  0  0  0  0  0
   20.9930   18.0220    3.9650 C   0  0  0  0  0  0  0  0  0  0  0  0
   20.0210   17.0180    3.8810 C   0  0  0  0  0  0  0  0  0  0  0  0
   22.9520   18.9730    5.0290 N   0  0  0  0  0  0  0  0  0  0  0  0
   15.1909   14.7207    5.7366 H   0  0  0  0  0  0  0  0  0  0  0  0
   14.6399   12.4632    3.1217 H   0  0  0  0  0  0  0  0  0  0  0  0
   12.3999   11.6640    2.3920 H   0  0  0  0  0  0  0  0  0  0  0  0
   10.5275   14.8883    4.5611 H   0  0  0  0  0  0  0  0  0  0  0  0
   12.7695   15.6834    5.2967 H   0  0  0  0  0  0  0  0  0  0  0  0
   10.0394   11.6837    2.8349 H   0  0  0  0  0  0  0  0  0  0  0  0
    7.2940   12.0868    3.0983 H   0  0  0  0  0  0  0  0  0  0  0  0
    7.0957   13.0814    1.6157 H   0  0  0  0  0  0  0  0  0  0  0  0
    8.2251   11.6847    1.6157 H   0  0  0  0  0  0  0  0  0  0  0  0
   17.7627   15.5661    6.8903 H   0  0  0  0  0  0  0  0  0  0  0  0
   16.5158   16.7843    6.4565 H   0  0  0  0  0  0  0  0  0  0  0  0
   16.1020   15.0363    6.4565 H   0  0  0  0  0  0  0  0  0  0  0  0
   17.5265   16.6866    4.4145 H   0  0  0  0  0  0  0  0  0  0  0  0
   21.1387   14.9757    6.3678 H   0  0  0  0  0  0  0  0  0  0  0  0
   22.8481   16.7793    6.5273 H   0  0  0  0  0  0  0  0  0  0  0  0
   20.9200   18.9056    3.3139 H   0  0  0  0  0  0  0  0  0  0  0  0
   19.2048   17.1060    3.1489 H   0  0  0  0  0  0  0  0  0  0  0  0
   22.9383   19.7649    4.3705 H   0  0  0  0  0  0  0  0  0  0  0  0
   23.6270   18.9618    5.8069 H   0  0  0  0  0  0  0  0  0  0  0  0
  2  1  2  0
  3  1  1  0
  4  3  1  0
  5  4  2  0
  6  5  1  0
  7  6  2  0
  8  7  1  0
  9  8  2  0
  9  4  1  0
 10  7  1  0
 11 10  1  0
 12 11  2  0
 13 11  1  0
 15  1  1  0
 15 14  1  0
 16 15  1  0
 17 16  1  0
 18 17  2  0
 19 18  1  0
 20 19  2  0
 21 20  1  0
 22 17  1  0
 22 21  2  0
 23 20  1  0
  3 24  1  0
  5 25  1  0
  6 26  1  0
  8 27  1  0
  9 28  1  0
 10 29  1  0
 13 30  1  0
 13 31  1  0
 13 32  1  0
 14 33  1  0
 14 34  1  0
 14 35  1  0
 15 36  1  6
 18 37  1  0
 19 38  1  0
 21 39  1  0
 22 40  1  0
 23 41  1  0
 23 42  1  0
M  END
$$$$
=
     RDKit          3D

 33 34  0  0  0  0  0  0  0  0999 V2000
   14.9770   13.7660    3.8650 C   0  0  0  0  0  0  0  0  0  0  0  0
   14.3840   14.8550    4.5250 C   0  0  0  0  0  0  0  0  0  0  0  0
   15.1420   15.9740    4.8730 C   0  0  0  0  0  0  0  0  0  0  0  0
   16.5050   16.0180    4.5770 C   0  0  0  0  0  0  0  0  0  0  0  0
   17.1120   14.9330    3.9460 C   0  0  0  0  0  0  0  0  0  0  0  0
   16.3500   13.8210    3.5790 C   0  0  0  0  0  0  0  0  0  0  0  0
   14.1780   12.5490    3.4830 C   0  0  2  0  0  0  0  0  0  0  0  0
   14.7830   11.8480    2.3810 O   0  0  0  0  0  0  0  0  0  0  0  0
   12.7380   12.8960    3.0590 C   0  0  0  0  0  0  0  0  0  0  0  0
   12.1180   11.6640    2.4830 N   0  0  0  0  0  4  0  0  0  0  0  0
   18.4390   14.9040    3.5810 O   0  0  0  0  0  0  0  0  0  0  0  0
   19.3700   15.2730    4.5220 C   0  0  0  0  0  0  0  0  0  0  0  0
   20.2320   16.3200    4.1970 C   0  0  0  0  0  0  0  0  0  0  0  0
   21.2190   16.7110    5.1010 C   0  0  0  0  0  0  0  0  0  0  0  0
   21.3520   16.0460    6.3200 C   0  0  0  0  0  0  0  0  0  0  0  0
   20.5040   14.9820    6.6330 C   0  0  0  0  0  0  0  0  0  0  0  0
   19.5150   14.5880    5.7310 C   0  0  0  0  0  0  0  0  0  0  0  0
   13.3120   14.8255    4.7699 H   0  0  0  0  0  0  0  0  0  0  0  0
   14.6636   16.8237    5.3821 H   0  0  0  0  0  0  0  0  0  0  0  0
   17.0985   16.9058    4.8406 H   0  0  0  0  0  0  0  0  0  0  0  0
   16.8315   12.9791    3.0600 H   0  0  0  0  0  0  0  0  0  0  0  0
   14.1590   11.9215    4.3862 H   0  0  0  0  0  0  0  0  0  0  0  0
   15.3886   11.1463    2.7288 H   0  0  0  0  0  0  0  0  0  0  0  0
   12.1613   13.2303    3.9340 H   0  0  0  0  0  0  0  0  0  0  0  0
   12.7429   13.7059    2.3146 H   0  0  0  0  0  0  0  0  0  0  0  0
   11.8074   11.0467    3.2468 H   0  0  0  0  0  0  0  0  0  0  0  0
   11.3085   11.9262    1.9026 H   0  0  0  0  0  0  0  0  0  0  0  0
   12.8109   11.1701    1.9026 H   0  0  0  0  0  0  0  0  0  0  0  0
   20.1336   16.8358    3.2304 H   0  0  0  0  0  0  0  0  0  0  0  0
   21.8930   17.5441    4.8528 H   0  0  0  0  0  0  0  0  0  0  0  0
   22.1260   16.3603    7.0356 H   0  0  0  0  0  0  0  0  0  0  0  0
   20.6156   14.4539    7.5914 H   0  0  0  0  0  0  0  0  0  0  0  0
   18.8531   13.7427    5.9705 H   0  0  0  0  0  0  0  0  0  0  0  0
  2  1  2  0
  3  2  1  0
  4  3  2  0
  5  4  1  0
  6  1  1  0
  6  5  2  0
  7  1  1  0
  8  7  1  0
  9  7  1  0
 10  9  1  0
 11  5  1  0
 12 11  1  0
 13 12  2  0
 14 13  1  0
 15 14  2  0
 16 15  1  0
 17 12  1  0
 17 16  2  0
  2 18  1  0
  3 19  1  0
  4 20  1  0
  6 21  1  0
  7 22  1  1
  8 23  1  0
  9 24  1  0
  9 25  1  0
 10 26  1  0
 10 27  1  0
 10 28  1  0
 13 29  1  0
 14 30  1  0
 15 31  1  0
 16 32  1  0
 17 33  1  0
M  CHG  1  10   1
M  END
$$$$
=
     RDKit          3D

 41 42  0  0  0  0  0  0  0  0999 V2000
   17.8600   15.7420    4.5980 C   0  0  2  0  0  0  0  0  0  0  0  0
   16.9350   16.2370    5.7320 C   0  0  0  0  0  0  0  0  0  0  0  0
   17.0490   14.6510    3.8500 C   0  0  0  0  0  0  0  0  0  0  0  0
   15.6470   14.6900    3.7360 C   0  0  0  0  0  0  0  0  0  0  0  0
   14.9480   13.6800    3.0670 C   0  0  0  0  0  0  0  0  0  0  0  0
   15.6310   12.6020    2.5140 C   0  0  0  0  0  0  0  0  0  0  0  0
   17.0140   12.5210    2.6410 C   0  0  0  0  0  0  0  0  0  0  0  0
   17.7130   13.5300    3.3080 C   0  0  0  0  0  0  0  0  0  0  0  0
   19.3970   14.8540    6.4000 C   0  0  0  0  0  0  0  0  0  0  0  0
   18.5830   14.7930    7.3200 O   0  0  0  0  0  0  0  0  0  0  0  0
   19.1110   15.0990    5.0820 N   0  0  0  0  0  0  0  0  0  0  0  0
   20.8740   14.7180    6.7500 C   0  0  0  0  0  0  0  0  0  0  0  0
   21.6730   15.2730    5.6130 N   0  0  0  0  0  4  0  0  0  0  0  0
   18.2460   16.9390    3.6460 C   0  0  0  0  0  0  0  0  0  0  0  0
   19.5630   17.6560    3.9040 C   0  0  0  0  0  0  0  0  0  0  0  0
   19.7980   18.2710    5.1460 C   0  0  0  0  0  0  0  0  0  0  0  0
   21.0120   18.9090    5.4090 C   0  0  0  0  0  0  0  0  0  0  0  0
   22.0050   18.9440    4.4330 C   0  0  0  0  0  0  0  0  0  0  0  0
   21.7840   18.3400    3.1970 C   0  0  0  0  0  0  0  0  0  0  0  0
   20.5730   17.6930    2.9360 C   0  0  0  0  0  0  0  0  0  0  0  0
   17.3867   15.9953    6.7054 H   0  0  0  0  0  0  0  0  0  0  0  0
   16.8036   17.3260    5.6490 H   0  0  0  0  0  0  0  0  0  0  0  0
   15.9561   15.7422    5.6490 H   0  0  0  0  0  0  0  0  0  0  0  0
   15.0914   15.5289    4.1805 H   0  0  0  0  0  0  0  0  0  0  0  0
   13.8532   13.7385    2.9778 H   0  0  0  0  0  0  0  0  0  0  0  0
   15.0793   11.8158    1.9778 H   0  0  0  0  0  0  0  0  0  0  0  0
   17.5566   11.6634    2.2167 H   0  0  0  0  0  0  0  0  0  0  0  0
   18.8050   13.4489    3.4130 H   0  0  0  0  0  0  0  0  0  0  0  0
   19.8098   14.8188    4.3790 H   0  0  0  0  0  0  0  0  0  0  0  0
   21.0929   15.2807    7.6695 H   0  0  0  0  0  0  0  0  0  0  0  0
   21.1309   13.6615    6.9170 H   0  0  0  0  0  0  0  0  0  0  0  0
   22.4623   15.8213    5.9835 H   0  0  0  0  0  0  0  0  0  0  0  0
   22.0331   14.4992    5.0365 H   0  0  0  0  0  0  0  0  0  0  0  0
   21.0735   15.8806    5.0365 H   0  0  0  0  0  0  0  0  0  0  0  0
   18.2837   16.5432    2.6204 H   0  0  0  0  0  0  0  0  0  0  0  0
   17.4751   17.7009    3.8334 H   0  0  0  0  0  0  0  0  0  0  0  0
   19.0165   18.2494    5.9198 H   0  0  0  0  0  0  0  0  0  0  0  0
   21.1839   19.3836    6.3863 H   0  0  0  0  0  0  0  0  0  0  0  0
   22.9615   19.4473    4.6375 H   0  0  0  0  0  0  0  0  0  0  0  0
   22.5656   18.3725    2.4237 H   0  0  0  0  0  0  0  0  0  0  0  0
   20.4124   17.2088    1.9615 H   0  0  0  0  0  0  0  0  0  0  0  0
  2  1  1  0
  3  1  1  0
  4  3  2  0
  5  4  1  0
  6  5  2  0
  7  6  1  0
  8  7  2  0
  8  3  1  0
 10  9  2  0
  1 11  1  1
 11  9  1  0
 12  9  1  0
 13 12  1  0
 14  1  1  0
 15 14  1  0
 16 15  2  0
 17 16  1  0
 18 17  2  0
 19 18  1  0
 20 19  2  0
 20 15  1  0
  2 21  1  0
  2 22  1  0
  2 23  1  0
  4 24  1  0
  5 25  1  0
  6 26  1  0
  7 27  1  0
  8 28  1  0
 11 29  1  0
 12 30  1  0
 12 31  1  0
 13 32  1  0
 13 33  1  0
 13 34  1  0
 14 35  1  0
 14 36  1  0
 16 37  1  0
 17 38  1  0
 18 39  1  0
 19 40  1  0
 20 41  1  0
M  CHG  1  13   1
M  END
$$$$
=
     RDKit          3D

 34 33  0  0  0  0  0  0  0  0999 V2000
   18.7590   16.2090    3.6240 C   0  0  2  0  0  0  0  0  0  0  0  0
   19.6180   14.9680    3.4710 N   0  0  0  0  0  4  0  0  0  0  0  0
   19.4690   17.4600    3.0940 C   0  0  0  0  0  0  0  0  0  0  0  0
   19.4270   17.8220    1.9290 O   0  0  0  0  0  0  0  0  0  0  0  0
   20.1110   18.0980    4.1150 O   0  0  0  0  0  0  0  0  0  0  0  0
   21.5420   18.1840    3.9860 C   0  0  0  0  0  0  0  0  0  0  0  0
   22.1330   17.8850    5.3260 C   0  0  0  0  0  0  0  0  0  0  0  0
   22.0000   16.7130    5.9610 C   0  0  0  0  0  0  0  0  0  0  0  0
   18.4180   16.3410    5.1070 C   0  0  0  0  0  0  0  0  0  0  0  0
   17.0570   16.9960    5.3660 C   0  0  0  0  0  0  0  0  0  0  0  0
   15.9930   15.9470    5.5910 C   0  0  0  0  0  0  0  0  0  0  0  0
   15.8760   15.3040    6.6250 O   0  0  0  0  0  0  0  0  0  0  0  0
   15.2160   15.8320    4.4860 O   0  0  0  0  0  0  0  0  0  0  0  0
   14.7990   14.4920    4.2010 C   0  0  0  0  0  0  0  0  0  0  0  0
   15.6400   12.7550    2.5930 C   0  0  0  0  0  0  0  0  0  0  0  0
   15.7960   13.9140    3.2470 C   0  0  0  0  0  0  0  0  0  0  0  0
   17.8404   16.1128    3.0265 H   0  0  0  0  0  0  0  0  0  0  0  0
   19.8681   14.6066    4.4025 H   0  0  0  0  0  0  0  0  0  0  0  0
   19.0930   14.2488    2.9533 H   0  0  0  0  0  0  0  0  0  0  0  0
   20.4760   15.2060    2.9533 H   0  0  0  0  0  0  0  0  0  0  0  0
   21.8971   17.4508    3.2469 H   0  0  0  0  0  0  0  0  0  0  0  0
   21.8407   19.1866    3.6460 H   0  0  0  0  0  0  0  0  0  0  0  0
   22.7135   18.6770    5.8218 H   0  0  0  0  0  0  0  0  0  0  0  0
   22.4643   16.5661    6.9473 H   0  0  0  0  0  0  0  0  0  0  0  0
   21.4265   15.8976    5.4961 H   0  0  0  0  0  0  0  0  0  0  0  0
   18.4110   15.3357    5.5534 H   0  0  0  0  0  0  0  0  0  0  0  0
   19.1813   16.9925    5.5575 H   0  0  0  0  0  0  0  0  0  0  0  0
   17.1280   17.6353    6.2583 H   0  0  0  0  0  0  0  0  0  0  0  0
   16.7808   17.5966    4.4868 H   0  0  0  0  0  0  0  0  0  0  0  0
   14.7756   13.8991    5.1273 H   0  0  0  0  0  0  0  0  0  0  0  0
   13.7888   14.4807    3.7658 H   0  0  0  0  0  0  0  0  0  0  0  0
   16.4237   12.4006    1.9073 H   0  0  0  0  0  0  0  0  0  0  0  0
   14.7282   12.1579    2.7418 H   0  0  0  0  0  0  0  0  0  0  0  0
   16.7223   14.4803    3.0700 H   0  0  0  0  0  0  0  0  0  0  0  0
  2  1  1  0
  3  1  1  0
  4  3  2  0
  5  3  1  0
  6  5  1  0
  7  6  1  0
  8  7  2  3
  9  1  1  0
 10  9  1  0
 11 10  1  0
 12 11  2  0
 13 11  1  0
 14 13  1  0
 16 15  2  3
 16 14  1  0
  1 17  1  6
  2 18  1  0
  2 19  1  0
  2 20  1  0
  6 21  1  0
  6 22  1  0
  7 23  1  0
  8 24  1  0
  8 25  1  0
  9 26  1  0
  9 27  1  0
 10 28  1  0
 10 29  1  0
 14 30  1  0
 14 31  1  0
 15 32  1  0
 15 33  1  0
 16 34  1  0
M  CHG  1   2   1
M  END
$$$$
=
     RDKit          3D

 22 22  0  0  0  0  0  0  0  0999 V2000
   19.2550   16.6800    3.6240 C   0  0  2  0  0  0  0  0  0  0  0  0
   20.2010   17.6370    2.8990 C   0  0  0  0  0  0  0  0  0  0  0  0
   21.3120   18.2680    3.7550 C   0  0  0  0  0  0  0  0  0  0  0  0
   21.0030   18.3580    5.2610 C   0  0  1  0  0  0  0  0  0  0  0  0
   19.4900   18.4680    5.4810 C   0  0  0  0  0  0  0  0  0  0  0  0
   18.6950   17.2710    4.9250 C   0  0  0  0  0  0  0  0  0  0  0  0
   19.9360   15.3790    3.8990 N   0  0  0  0  0  4  0  0  0  0  0  0
   21.5080   17.1430    5.9200 C   0  0  0  0  0  0  0  0  0  0  0  0
   21.6630   16.2390    6.6320 N   0  0  0  0  0  0  0  0  0  0  0  0
   18.4002   16.5110    2.9527 H   0  0  0  0  0  0  0  0  0  0  0  0
   20.6821   17.0793    2.0820 H   0  0  0  0  0  0  0  0  0  0  0  0
   19.5732   18.4760    2.5645 H   0  0  0  0  0  0  0  0  0  0  0  0
   22.2234   17.6650    3.6293 H   0  0  0  0  0  0  0  0  0  0  0  0
   21.4208   19.3040    3.4016 H   0  0  0  0  0  0  0  0  0  0  0  0
   21.4891   19.2490    5.6850 H   0  0  0  0  0  0  0  0  0  0  0  0
   19.3005   18.5388    6.5622 H   0  0  0  0  0  0  0  0  0  0  0  0
   19.1499   19.3610    4.9361 H   0  0  0  0  0  0  0  0  0  0  0  0
   17.6636   17.6029    4.7349 H   0  0  0  0  0  0  0  0  0  0  0  0
   18.7601   16.4754    5.6818 H   0  0  0  0  0  0  0  0  0  0  0  0
   20.0096   15.2384    4.9167 H   0  0  0  0  0  0  0  0  0  0  0  0
   19.3889   14.6108    3.4849 H   0  0  0  0  0  0  0  0  0  0  0  0
   20.8790   15.3908    3.4849 H   0  0  0  0  0  0  0  0  0  0  0  0
  2  1  1  0
  3  2  1  0
  4  3  1  0
  5  4  1  0
  6  1  1  0
  6  5  1  0
  7  1  1  0
  8  4  1  0
  9  8  3  0
  1 10  1  6
  2 11  1  0
  2 12  1  0
  3 13  1  0
  3 14  1  0
  4 15  1  1
  5 16  1  0
  5 17  1  0
  6 18  1  0
  6 19  1  0
  7 20  1  0
  7 21  1  0
  7 22  1  0
M  CHG  1   7   1
M  END
$$$$
=
     RDKit          3D

 51 52  0  0  0  0  0  0  0  0999 V2000
   28.2930   26.0170   14.4940 N   0  0  0  0  0  0  0  0  0  0  0  0
   29.2950   26.4660   15.6140 C   0  0  1  0  0  0  0  0  0  0  0  0
   30.3960   25.4130   15.8360 C   0  0  0  0  0  0  0  0  0  0  0  0
   29.9120   27.8370   15.2240 C   0  0  0  0  0  0  0  0  0  0  0  0
   30.5360   28.4440   16.4710 C   0  0  0  0  0  0  0  0  0  0  0  0
   29.3700   28.0860   17.7570 S   0  0  0  0  0  6  0  0  0  0  0  0
   30.0860   27.5750   18.9030 O   0  0  0  0  0  0  0  0  0  0  0  0
   28.4460   29.2000   17.8300 O   0  0  0  0  0  0  0  0  0  0  0  0
   28.5360   26.7460   16.9310 C   0  0  0  0  0  0  0  0  0  0  0  0
   27.1840   24.7260   15.0220 S   0  0  0  0  0  6  0  0  0  0  0  0
   27.0710   24.7880   16.4560 O   0  0  0  0  0  0  0  0  0  0  0  0
   27.6060   23.5310   14.3280 O   0  0  0  0  0  0  0  0  0  0  0  0
   25.6400   25.2900   14.3090 C   0  0  0  0  0  0  0  0  0  0  0  0
   25.1410   24.5790   13.2050 C   0  0  0  0  0  0  0  0  0  0  0  0
   23.9750   24.9930   12.5450 C   0  0  0  0  0  0  0  0  0  0  0  0
   23.4590   24.1880   11.3810 C   0  0  0  0  0  0  0  0  0  0  0  0
   23.2900   26.1270   13.0130 C   0  0  0  0  0  0  0  0  0  0  0  0
   23.7710   26.8040   14.1470 C   0  0  0  0  0  0  0  0  0  0  0  0
   24.9450   26.4050   14.8110 C   0  0  0  0  0  0  0  0  0  0  0  0
   25.3460   27.1600   16.0470 C   0  0  0  0  0  0  0  0  0  0  0  0
   22.0020   26.5830   12.3780 C   0  0  0  0  0  0  0  0  0  0  0  0
   28.9680   25.6610   13.1700 C   0  0  0  0  0  0  0  0  0  0  0  0
   28.2320   26.3040   11.9800 C   0  0  0  0  0  0  0  0  0  0  0  0
   27.8230   25.2700   10.9980 N   0  0  0  0  0  4  0  0  0  0  0  0
   30.5501   25.2656   16.9151 H   0  0  0  0  0  0  0  0  0  0  0  0
   30.0915   24.4615   15.3757 H   0  0  0  0  0  0  0  0  0  0  0  0
   31.3330   25.7596   15.3757 H   0  0  0  0  0  0  0  0  0  0  0  0
   30.6832   27.6934   14.4529 H   0  0  0  0  0  0  0  0  0  0  0  0
   29.1357   28.5046   14.8218 H   0  0  0  0  0  0  0  0  0  0  0  0
   31.5095   27.9792   16.6862 H   0  0  0  0  0  0  0  0  0  0  0  0
   30.7289   29.5217   16.3644 H   0  0  0  0  0  0  0  0  0  0  0  0
   27.4960   27.0294   16.7119 H   0  0  0  0  0  0  0  0  0  0  0  0
   28.5211   25.8488   17.5672 H   0  0  0  0  0  0  0  0  0  0  0  0
   25.6734   23.6832   12.8526 H   0  0  0  0  0  0  0  0  0  0  0  0
   22.9009   23.3174   11.7560 H   0  0  0  0  0  0  0  0  0  0  0  0
   22.7935   24.8141   10.7685 H   0  0  0  0  0  0  0  0  0  0  0  0
   24.3058   23.8447   10.7685 H   0  0  0  0  0  0  0  0  0  0  0  0
   23.2124   27.6722   14.5267 H   0  0  0  0  0  0  0  0  0  0  0  0
   25.0437   26.5909   16.9385 H   0  0  0  0  0  0  0  0  0  0  0  0
   26.4371   27.2996   16.0536 H   0  0  0  0  0  0  0  0  0  0  0  0
   24.8507   28.1421   16.0536 H   0  0  0  0  0  0  0  0  0  0  0  0
   21.2765   26.8398   13.1640 H   0  0  0  0  0  0  0  0  0  0  0  0
   22.1943   27.4677   11.7532 H   0  0  0  0  0  0  0  0  0  0  0  0
   21.5948   25.7744   11.7532 H   0  0  0  0  0  0  0  0  0  0  0  0
   30.0065   26.0231   13.1878 H   0  0  0  0  0  0  0  0  0  0  0  0
   28.9407   24.5682   13.0475 H   0  0  0  0  0  0  0  0  0  0  0  0
   27.3370   26.8268   12.3483 H   0  0  0  0  0  0  0  0  0  0  0  0
   28.9110   27.0140   11.4851 H   0  0  0  0  0  0  0  0  0  0  0  0
   27.4919   24.4329   11.4986 H   0  0  0  0  0  0  0  0  0  0  0  0
   27.0645   25.6389   10.4068 H   0  0  0  0  0  0  0  0  0  0  0  0
   28.6286   25.0202   10.4068 H   0  0  0  0  0  0  0  0  0  0  0  0
  2  1  1  6
  3  2  1  0
  4  2  1  0
  5  4  1  0
  6  5  1  0
  7  6  2  0
  8  6  2  0
  9  2  1  0
  9  6  1  0
 10  1  1  0
 11 10  2  0
 12 10  2  0
 13 10  1  0
 14 13  2  0
 15 14  1  0
 16 15  1  0
 17 15  2  0
 18 17  1  0
 19 18  2  0
 19 13  1  0
 20 19  1  0
 21 17  1  0
 22  1  1  0
 23 22  1  0
 24 23  1  0
  3 25  1  0
  3 26  1  0
  3 27  1  0
  4 28  1  0
  4 29  1  0
  5 30  1  0
  5 31  1  0
  9 32  1  0
  9 33  1  0
 14 34  1  0
 16 35  1  0
 16 36  1  0
 16 37  1  0
 18 38  1  0
 20 39  1  0
 20 40  1  0
 20 41  1  0
 21 42  1  0
 21 43  1  0
 21 44  1  0
 22 45  1  0
 22 46  1  0
 23 47  1  0
 23 48  1  0
 24 49  1  0
 24 50  1  0
 24 51  1  0
M  CHG  1  24   1
M  END
$$$$
=
     RDKit          3D

 43 44  0  0  0  0  0  0  0  0999 V2000
   17.5550   15.1940    5.0060 N   0  0  0  0  0  4  0  0  0  0  0  0
   18.8910   14.5400    4.9010 C   0  0  0  0  0  0  0  0  0  0  0  0
   21.2990   17.0850    5.9350 N   0  0  0  0  0  0  0  0  0  0  0  0
   21.6620   16.1130    6.7900 N   0  0  0  0  0  0  0  0  0  0  0  0
   20.8280   15.1100    6.5280 C   0  0  0  0  0  0  0  0  0  0  0  0
   19.9200   15.4210    5.4930 C   0  0  0  0  0  0  0  0  0  0  0  0
   20.2280   16.7280    5.1600 C   0  0  0  0  0  0  0  0  0  0  0  0
   22.0040   18.3540    5.9490 C   0  0  0  0  0  0  0  0  0  0  0  0
   22.5530   19.5520    3.9830 F   0  0  0  0  0  0  0  0  0  0  0  0
   22.9290   18.5090    4.7610 C   0  0  0  0  0  0  0  0  0  0  0  0
   24.1920   18.7810    5.1860 F   0  0  0  0  0  0  0  0  0  0  0  0
   16.8060   15.3590    3.7360 C   0  0  0  0  0  0  0  0  0  0  0  0
   15.6550   14.4390    3.6490 C   0  0  0  0  0  0  0  0  0  0  0  0
   14.3150   14.6470    3.9180 C   0  0  0  0  0  0  0  0  0  0  0  0
   13.6820   13.4050    3.6820 C   0  0  0  0  0  0  0  0  0  0  0  0
   14.5700   12.4880    3.2880 N   0  0  0  0  0  0  0  0  0  0  0  0
   15.7350   13.1380    3.2100 N   0  0  0  0  0  0  0  0  0  0  0  0
   16.8910   12.4260    2.7100 C   0  0  0  0  0  0  0  0  0  0  0  0
   12.2250   13.0670    3.8340 C   0  0  0  0  0  0  0  0  0  0  0  0
   11.6520   12.4390    2.5610 C   0  0  0  0  0  0  0  0  0  0  0  0
   11.3990   14.2840    4.2530 C   0  0  0  0  0  0  0  0  0  0  0  0
   16.9760   14.6262    5.6410 H   0  0  0  0  0  0  0  0  0  0  0  0
   17.7410   16.1494    5.3430 H   0  0  0  0  0  0  0  0  0  0  0  0
   18.8736   13.5821    5.4415 H   0  0  0  0  0  0  0  0  0  0  0  0
   19.1283   14.3598    3.8421 H   0  0  0  0  0  0  0  0  0  0  0  0
   20.8443   14.1465    7.0585 H   0  0  0  0  0  0  0  0  0  0  0  0
   19.7136   17.3568    4.4184 H   0  0  0  0  0  0  0  0  0  0  0  0
   21.2657   19.1693    5.9315 H   0  0  0  0  0  0  0  0  0  0  0  0
   22.6180   18.3884    6.8610 H   0  0  0  0  0  0  0  0  0  0  0  0
   22.8857   17.5676    4.1936 H   0  0  0  0  0  0  0  0  0  0  0  0
   16.4389   16.3940    3.6721 H   0  0  0  0  0  0  0  0  0  0  0  0
   17.4896   15.1272    2.9060 H   0  0  0  0  0  0  0  0  0  0  0  0
   13.8404   15.5832    4.2469 H   0  0  0  0  0  0  0  0  0  0  0  0
   17.4891   12.0576    3.5565 H   0  0  0  0  0  0  0  0  0  0  0  0
   16.5604   11.5748    2.0967 H   0  0  0  0  0  0  0  0  0  0  0  0
   17.5024   13.1043    2.0967 H   0  0  0  0  0  0  0  0  0  0  0  0
   12.1581   12.3208    4.6394 H   0  0  0  0  0  0  0  0  0  0  0  0
   10.9334   11.6515    2.8320 H   0  0  0  0  0  0  0  0  0  0  0  0
   11.1419   13.2125    1.9681 H   0  0  0  0  0  0  0  0  0  0  0  0
   12.4689   12.0018    1.9681 H   0  0  0  0  0  0  0  0  0  0  0  0
   11.3605   14.3407    5.3509 H   0  0  0  0  0  0  0  0  0  0  0  0
   11.8643   15.1977    3.8548 H   0  0  0  0  0  0  0  0  0  0  0  0
   10.3780   14.1889    3.8548 H   0  0  0  0  0  0  0  0  0  0  0  0
  2  1  1  0
  4  3  1  0
  5  4  2  0
  6  2  1  0
  6  5  1  0
  7  6  2  0
  7  3  1  0
  8  3  1  0
 10  9  1  0
 10  8  1  0
 11 10  1  0
 12  1  1  0
 13 12  1  0
 14 13  2  0
 15 14  1  0
 16 15  2  0
 17 16  1  0
 17 13  1  0
 18 17  1  0
 19 15  1  0
 20 19  1  0
 21 19  1  0
  1 22  1  0
  1 23  1  0
  2 24  1  0
  2 25  1  0
  5 26  1  0
  7 27  1  0
  8 28  1  0
  8 29  1  0
 10 30  1  0
 12 31  1  0
 12 32  1  0
 14 33  1  0
 18 34  1  0
 18 35  1  0
 18 36  1  0
 19 37  1  0
 20 38  1  0
 20 39  1  0
 20 40  1  0
 21 41  1  0
 21 42  1  0
 21 43  1  0
M  CHG  1   1   1
M  END
$$$$
=
     RDKit          3D

 39 40  0  0  0  0  0  0  0  0999 V2000
   17.4600   16.4510    4.4410 N   0  0  0  0  0  4  0  0  0  0  0  0
   16.1030   16.3110    5.0410 C   0  0  0  0  0  0  0  0  0  0  0  0
   15.3230   13.0750    3.1710 C   0  0  0  0  0  0  0  0  0  0  0  0
   16.0130   14.1410    3.7660 C   0  0  0  0  0  0  0  0  0  0  0  0
   15.3420   15.1440    4.4800 C   0  0  0  0  0  0  0  0  0  0  0  0
   13.9500   15.0630    4.6060 C   0  0  0  0  0  0  0  0  0  0  0  0
   13.2520   14.0020    4.0220 C   0  0  0  0  0  0  0  0  0  0  0  0
   13.9330   13.0160    3.3020 C   0  0  0  0  0  0  0  0  0  0  0  0
   17.5390   12.2410    2.8290 C   0  0  0  0  0  0  0  0  0  0  0  0
   16.1550   12.2230    2.5010 O   0  0  0  0  0  0  0  0  0  0  0  0
   13.2080   12.0180    2.7190 O   0  0  0  0  0  0  0  0  0  0  0  0
   18.3950   17.3590    5.1530 C   0  0  0  0  0  0  0  0  0  0  0  0
   19.5160   16.5800    5.7290 C   0  0  0  0  0  0  0  0  0  0  0  0
   19.5520   15.2580    6.1340 C   0  0  0  0  0  0  0  0  0  0  0  0
   20.8580   15.0490    6.6030 C   0  0  0  0  0  0  0  0  0  0  0  0
   21.5980   16.1510    6.5110 N   0  0  0  0  0  0  0  0  0  0  0  0
   20.7880   17.0660    5.9600 N   0  0  0  0  0  0  0  0  0  0  0  0
   21.3430   18.3790    5.6860 C   0  0  0  0  0  0  0  0  0  0  0  0
   22.0240   18.4090    4.3450 C   0  0  0  0  0  0  0  0  0  0  0  0
   22.5130   19.6600    4.0940 F   0  0  0  0  0  0  0  0  0  0  0  0
   21.1490   18.1370    3.3530 F   0  0  0  0  0  0  0  0  0  0  0  0
   23.0540   17.5520    4.2430 F   0  0  0  0  0  0  0  0  0  0  0  0
   17.8899   15.5155    4.4118 H   0  0  0  0  0  0  0  0  0  0  0  0
   17.3119   16.8753    3.5142 H   0  0  0  0  0  0  0  0  0  0  0  0
   16.2103   16.1726    6.1270 H   0  0  0  0  0  0  0  0  0  0  0  0
   15.5372   17.2237    4.8028 H   0  0  0  0  0  0  0  0  0  0  0  0
   17.1077   14.1916    3.6702 H   0  0  0  0  0  0  0  0  0  0  0  0
   13.4041   15.8364    5.1661 H   0  0  0  0  0  0  0  0  0  0  0  0
   12.1589   13.9425    4.1298 H   0  0  0  0  0  0  0  0  0  0  0  0
   17.6566   12.2425    3.9227 H   0  0  0  0  0  0  0  0  0  0  0  0
   18.0270   11.3491    2.4090 H   0  0  0  0  0  0  0  0  0  0  0  0
   18.0036   13.1453    2.4090 H   0  0  0  0  0  0  0  0  0  0  0  0
   13.6675   11.3083    2.2039 H   0  0  0  0  0  0  0  0  0  0  0  0
   18.7927   18.1009    4.4449 H   0  0  0  0  0  0  0  0  0  0  0  0
   17.8555   17.8700    5.9640 H   0  0  0  0  0  0  0  0  0  0  0  0
   18.7316   14.5262    6.0965 H   0  0  0  0  0  0  0  0  0  0  0  0
   21.2253   14.0906    6.9986 H   0  0  0  0  0  0  0  0  0  0  0  0
   20.5311   19.1211    5.6935 H   0  0  0  0  0  0  0  0  0  0  0  0
   22.0872   18.6130    6.4615 H   0  0  0  0  0  0  0  0  0  0  0  0
  2  1  1  0
  4  3  2  0
  5  4  1  0
  5  2  1  0
  6  5  2  0
  7  6  1  0
  8  7  2  0
  8  3  1  0
 10  3  1  0
 10  9  1  0
 11  8  1  0
 12  1  1  0
 13 12  1  0
 14 13  2  0
 15 14  1  0
 16 15  2  0
 17 16  1  0
 17 13  1  0
 18 17  1  0
 19 18  1  0
 20 19  1  0
 21 19  1  0
 22 19  1  0
  1 23  1  0
  1 24  1  0
  2 25  1  0
  2 26  1  0
  4 27  1  0
  6 28  1  0
  7 29  1  0
  9 30  1  0
  9 31  1  0
  9 32  1  0
 11 33  1  0
 12 34  1  0
 12 35  1  0
 14 36  1  0
 15 37  1  0
 18 38  1  0
 18 39  1  0
M  CHG  1   1   1
M  END
$$$$
=
     RDKit          3D

 28 29  0  0  0  0  0  0  0  0999 V2000
   19.0100   15.2250    4.4940 S   0  0  0  0  0  6  0  0  0  0  0  0
   19.5390   15.2700    3.1470 O   0  0  0  0  0  0  0  0  0  0  0  0
   19.4880   14.2580    5.4580 O   0  0  0  0  0  0  0  0  0  0  0  0
   14.4630   14.8150    4.1580 C   0  0  0  0  0  0  0  0  0  0  0  0
   15.0290   15.6870    5.0930 C   0  0  0  0  0  0  0  0  0  0  0  0
   16.4150   15.8280    5.1950 C   0  0  0  0  0  0  0  0  0  0  0  0
   17.2430   15.0640    4.3710 C   0  0  0  0  0  0  0  0  0  0  0  0
   16.6980   14.1320    3.4850 C   0  0  0  0  0  0  0  0  0  0  0  0
   15.3090   14.0010    3.3970 C   0  0  0  0  0  0  0  0  0  0  0  0
   13.0810   14.5960    4.1470 N   0  0  0  0  0  0  0  0  0  0  0  0
   19.2050   16.7830    5.1210 N   0  0  0  0  0  0  0  0  0  0  0  0
   20.5150   17.3350    5.2010 C   0  0  0  0  0  0  0  0  0  0  0  0
   20.9390   18.3140    4.3100 C   0  0  0  0  0  0  0  0  0  0  0  0
   22.2410   18.8030    4.3970 C   0  0  0  0  0  0  0  0  0  0  0  0
   23.0740   18.2870    5.3770 C   0  0  0  0  0  0  0  0  0  0  0  0
   22.6980   17.3330    6.2570 N   0  0  0  0  0  0  0  0  0  0  0  0
   21.4280   16.8770    6.1470 C   0  0  0  0  0  0  0  0  0  0  0  0
   14.3740   16.2699    5.7573 H   0  0  0  0  0  0  0  0  0  0  0  0
   16.8497   16.5343    5.9177 H   0  0  0  0  0  0  0  0  0  0  0  0
   17.3553   13.5071    2.8625 H   0  0  0  0  0  0  0  0  0  0  0  0
   14.8759   13.2488    2.7212 H   0  0  0  0  0  0  0  0  0  0  0  0
   12.6669   13.9531    3.4570 H   0  0  0  0  0  0  0  0  0  0  0  0
   12.4778   15.0777    4.8289 H   0  0  0  0  0  0  0  0  0  0  0  0
   18.3889   17.3243    5.4401 H   0  0  0  0  0  0  0  0  0  0  0  0
   20.2522   18.6997    3.5422 H   0  0  0  0  0  0  0  0  0  0  0  0
   22.5988   19.5795    3.7048 H   0  0  0  0  0  0  0  0  0  0  0  0
   24.1006   18.6766    5.4423 H   0  0  0  0  0  0  0  0  0  0  0  0
   21.0972   16.0967    6.8482 H   0  0  0  0  0  0  0  0  0  0  0  0
  2  1  2  0
  3  1  2  0
  5  4  2  0
  6  5  1  0
  7  6  2  0
  7  1  1  0
  8  7  1  0
  9  4  1  0
  9  8  2  0
 10  4  1  0
 11  1  1  0
 12 11  1  0
 13 12  2  0
 14 13  1  0
 15 14  2  0
 16 15  1  0
 17 12  1  0
 17 16  2  0
  5 18  1  0
  6 19  1  0
  8 20  1  0
  9 21  1  0
 10 22  1  0
 10 23  1  0
 11 24  1  0
 13 25  1  0
 14 26  1  0
 15 27  1  0
 17 28  1  0
M  END
$$$$
=
     RDKit          3D

 25 25  0  0  0  0  0  0  0  0999 V2000
   20.4130   16.6820    5.5980 N   0  0  0  0  0  0  0  0  0  0  0  0
   19.6940   15.5550    5.9360 C   0  0  0  0  0  0  0  0  0  0  0  0
   20.1980   14.6780    6.6350 O   0  0  0  0  0  0  0  0  0  0  0  0
   18.2880   15.4390    5.4560 C   0  0  0  0  0  0  0  0  0  0  0  0
   17.2510   15.8140    6.3250 C   0  0  0  0  0  0  0  0  0  0  0  0
   15.9180   15.7200    5.9120 C   0  0  0  0  0  0  0  0  0  0  0  0
   15.6260   15.2530    4.6350 C   0  0  0  0  0  0  0  0  0  0  0  0
   16.6350   14.8750    3.7610 C   0  0  0  0  0  0  0  0  0  0  0  0
   17.9600   14.9700    4.1780 C   0  0  0  0  0  0  0  0  0  0  0  0
   18.9210   14.5970    3.3200 F   0  0  0  0  0  0  0  0  0  0  0  0
   14.3490   15.1650    4.2430 F   0  0  0  0  0  0  0  0  0  0  0  0
   21.8510   16.8270    5.7990 C   0  0  0  0  0  0  0  0  0  0  0  0
   22.5780   17.6720    4.7370 C   0  0  0  0  0  0  0  0  0  0  0  0
   23.4340   18.7070    5.3650 N   0  0  0  0  0  4  0  0  0  0  0  0
   19.9027   17.4715    5.1770 H   0  0  0  0  0  0  0  0  0  0  0  0
   17.4876   16.1829    7.3339 H   0  0  0  0  0  0  0  0  0  0  0  0
   15.1056   16.0136    6.5930 H   0  0  0  0  0  0  0  0  0  0  0  0
   16.3918   14.5058    2.7537 H   0  0  0  0  0  0  0  0  0  0  0  0
   22.0119   17.2998    6.7791 H   0  0  0  0  0  0  0  0  0  0  0  0
   22.2737   15.8141    5.7259 H   0  0  0  0  0  0  0  0  0  0  0  0
   23.2072   17.0112    4.1226 H   0  0  0  0  0  0  0  0  0  0  0  0
   21.8218   18.1762    4.1174 H   0  0  0  0  0  0  0  0  0  0  0  0
   23.3701   18.6297    6.3901 H   0  0  0  0  0  0  0  0  0  0  0  0
   24.4114   18.5692    5.0706 H   0  0  0  0  0  0  0  0  0  0  0  0
   23.1152   19.6411    5.0706 H   0  0  0  0  0  0  0  0  0  0  0  0
  2  1  1  0
  3  2  2  0
  4  2  1  0
  5  4  2  0
  6  5  1  0
  7  6  2  0
  8  7  1  0
  9  8  2  0
  9  4  1  0
 10  9  1  0
 11  7  1  0
 12  1  1  0
 13 12  1  0
 14 13  1  0
  1 15  1  0
  5 16  1  0
  6 17  1  0
  8 18  1  0
 12 19  1  0
 12 20  1  0
 13 21  1  0
 13 22  1  0
 14 23  1  0
 14 24  1  0
 14 25  1  0
M  CHG  1  14   1
M  END
$$$$
=
     RDKit          3D

 54 54  0  0  0  0  0  0  0  0999 V2000
   23.9440   24.8730   14.5050 C   0  0  2  0  0  0  0  0  0  0  0  0
   22.6510   24.0760   14.2710 C   0  0  0  0  0  0  0  0  0  0  0  0
   21.9460   24.4570   12.9670 C   0  0  0  0  0  0  0  0  0  0  0  0
   21.7120   25.9600   12.8560 C   0  0  0  0  0  0  0  0  0  0  0  0
   22.9930   26.7600   13.0810 C   0  0  0  0  0  0  0  0  0  0  0  0
   23.6490   26.3960   14.4190 C   0  0  2  0  0  0  0  0  0  0  0  0
   26.4850   23.6310   15.0650 O   0  0  0  0  0  0  0  0  0  0  0  0
   26.1020   23.7830   13.9170 C   0  0  0  0  0  0  0  0  0  0  0  0
   24.9710   24.4440   13.5560 N   0  0  0  0  0  0  0  0  0  0  0  0
   26.7150   23.3430   12.7990 O   0  0  0  0  0  0  0  0  0  0  0  0
   27.9140   23.9870   12.2940 C   0  0  0  0  0  0  0  0  0  0  0  0
   28.2230   23.2610   10.9760 C   0  0  0  0  0  0  0  0  0  0  0  0
   29.0920   23.7880   13.2550 C   0  0  0  0  0  0  0  0  0  0  0  0
   27.6720   25.4690   11.9920 C   0  0  0  0  0  0  0  0  0  0  0  0
   24.8190   27.2460   14.6600 N   0  0  0  0  0  0  0  0  0  0  0  0
   25.4070   27.3010   15.8990 C   0  0  0  0  0  0  0  0  0  0  0  0
   25.0100   26.6540   16.8720 O   0  0  0  0  0  0  0  0  0  0  0  0
   26.5110   28.3630   16.1300 C   0  0  1  0  0  0  0  0  0  0  0  0
   26.6590   28.5180   17.6300 N   0  0  0  0  0  4  0  0  0  0  0  0
   27.9040   28.1070   15.5330 C   0  0  0  0  0  0  0  0  0  0  0  0
   28.2980   26.6290   15.5030 C   0  0  0  0  0  0  0  0  0  0  0  0
   28.0790   28.7550   14.1610 C   0  0  0  0  0  0  0  0  0  0  0  0
   24.3321   24.6745   15.5150 H   0  0  0  0  0  0  0  0  0  0  0  0
   22.9000   23.0051   14.2358 H   0  0  0  0  0  0  0  0  0  0  0  0
   21.9646   24.3089   15.0984 H   0  0  0  0  0  0  0  0  0  0  0  0
   22.5680   24.1319   12.1200 H   0  0  0  0  0  0  0  0  0  0  0  0
   20.9643   23.9609   12.9566 H   0  0  0  0  0  0  0  0  0  0  0  0
   21.3252   26.1853   11.8512 H   0  0  0  0  0  0  0  0  0  0  0  0
   20.9916   26.2487   13.6355 H   0  0  0  0  0  0  0  0  0  0  0  0
   23.6986   26.5437   12.2653 H   0  0  0  0  0  0  0  0  0  0  0  0
   22.7360   27.8294   13.0996 H   0  0  0  0  0  0  0  0  0  0  0  0
   22.9450   26.6011   15.2389 H   0  0  0  0  0  0  0  0  0  0  0  0
   24.8289   24.6548   12.5579 H   0  0  0  0  0  0  0  0  0  0  0  0
   28.6452   22.2690   11.1941 H   0  0  0  0  0  0  0  0  0  0  0  0
   27.2961   23.1453   10.3950 H   0  0  0  0  0  0  0  0  0  0  0  0
   28.9489   23.8488   10.3950 H   0  0  0  0  0  0  0  0  0  0  0  0
   28.7328   23.8487   14.2929 H   0  0  0  0  0  0  0  0  0  0  0  0
   29.5446   22.8007   13.0808 H   0  0  0  0  0  0  0  0  0  0  0  0
   29.8438   24.5719   13.0808 H   0  0  0  0  0  0  0  0  0  0  0  0
   27.5811   26.0256   12.9364 H   0  0  0  0  0  0  0  0  0  0  0  0
   28.5170   25.8676   11.4113 H   0  0  0  0  0  0  0  0  0  0  0  0
   26.7441   25.5781   11.4113 H   0  0  0  0  0  0  0  0  0  0  0  0
   25.2050   27.8095   13.8891 H   0  0  0  0  0  0  0  0  0  0  0  0
   26.1637   29.2567   15.5908 H   0  0  0  0  0  0  0  0  0  0  0  0
   26.0287   27.8578   18.1072 H   0  0  0  0  0  0  0  0  0  0  0  0
   27.6327   28.3200   17.9012 H   0  0  0  0  0  0  0  0  0  0  0  0
   26.4162   29.4815   17.9012 H   0  0  0  0  0  0  0  0  0  0  0  0
   28.6031   28.5981   16.2259 H   0  0  0  0  0  0  0  0  0  0  0  0
   28.3977   26.2551   16.5327 H   0  0  0  0  0  0  0  0  0  0  0  0
   27.5220   26.0533   14.9774 H   0  0  0  0  0  0  0  0  0  0  0  0
   29.2576   26.5159   14.9774 H   0  0  0  0  0  0  0  0  0  0  0  0
   28.3639   29.8099   14.2874 H   0  0  0  0  0  0  0  0  0  0  0  0
   28.8667   28.2267   13.6038 H   0  0  0  0  0  0  0  0  0  0  0  0
   27.1325   28.6950   13.6038 H   0  0  0  0  0  0  0  0  0  0  0  0
  2  1  1  0
  3  2  1  0
  4  3  1  0
  5  4  1  0
  6  5  1  0
  6  1  1  0
  8  7  2  0
  9  8  1  0
  9  1  1  0
 10  8  1  0
 11 10  1  0
 12 11  1  0
 13 11  1  0
 14 11  1  0
 15  6  1  0
 16 15  1  0
 17 16  2  0
 18 16  1  0
 19 18  1  0
 20 18  1  0
 21 20  1  0
 22 20  1  0
  1 23  1  1
  2 24  1  0
  2 25  1  0
  3 26  1  0
  3 27  1  0
  4 28  1  0
  4 29  1  0
  5 30  1  0
  5 31  1  0
  6 32  1  1
  9 33  1  0
 12 34  1  0
 12 35  1  0
 12 36  1  0
 13 37  1  0
 13 38  1  0
 13 39  1  0
 14 40  1  0
 14 41  1  0
 14 42  1  0
 15 43  1  0
 18 44  1  6
 19 45  1  0
 19 46  1  0
 19 47  1  0
 20 48  1  0
 21 49  1  0
 21 50  1  0
 21 51  1  0
 22 52  1  0
 22 53  1  0
 22 54  1  0
M  CHG  1  19   1
M  END
$$$$
=
     RDKit          3D

 35 36  0  0  0  0  0  0  0  0999 V2000
   21.8310   18.6550    4.2860 C   0  0  0  0  0  0  0  0  0  0  0  0
   20.5660   17.8930    4.5490 C   0  0  0  0  0  0  0  0  0  0  0  0
   19.5640   18.4380    5.3580 C   0  0  0  0  0  0  0  0  0  0  0  0
   18.3810   17.7310    5.6020 C   0  0  0  0  0  0  0  0  0  0  0  0
   18.1650   16.4750    5.0180 C   0  0  0  0  0  0  0  0  0  0  0  0
   19.1580   15.9510    4.1530 C   0  0  0  0  0  0  0  0  0  0  0  0
   20.3560   16.6440    3.9510 C   0  0  0  0  0  0  0  0  0  0  0  0
   19.0020   14.6470    3.6260 N   0  0  0  0  0  0  0  0  0  0  0  0
   16.9920   15.6990    5.2470 N   0  0  0  0  0  0  0  0  0  0  0  0
   16.7420   15.6130    6.6940 C   0  0  0  0  0  0  0  0  0  0  0  0
   15.8260   16.1040    4.4460 C   0  0  0  0  0  0  0  0  0  0  0  0
   15.0130   14.8960    4.0320 C   0  0  0  0  0  0  0  0  0  0  0  0
   13.6550   14.7920    4.3700 C   0  0  0  0  0  0  0  0  0  0  0  0
   12.9110   13.6790    3.9730 C   0  0  0  0  0  0  0  0  0  0  0  0
   13.5130   12.6620    3.2330 C   0  0  0  0  0  0  0  0  0  0  0  0
   14.8600   12.7560    2.8890 C   0  0  0  0  0  0  0  0  0  0  0  0
   15.6050   13.8670    3.2840 C   0  0  0  0  0  0  0  0  0  0  0  0
   22.2960   18.9351    5.2427 H   0  0  0  0  0  0  0  0  0  0  0  0
   22.5258   18.0250    3.7112 H   0  0  0  0  0  0  0  0  0  0  0  0
   21.5989   19.5637    3.7112 H   0  0  0  0  0  0  0  0  0  0  0  0
   19.7070   19.4320    5.8069 H   0  0  0  0  0  0  0  0  0  0  0  0
   17.6129   18.1653    6.2587 H   0  0  0  0  0  0  0  0  0  0  0  0
   21.1400   16.2043    3.3170 H   0  0  0  0  0  0  0  0  0  0  0  0
   19.7179   14.2569    2.9965 H   0  0  0  0  0  0  0  0  0  0  0  0
   18.1726   14.0880    3.8719 H   0  0  0  0  0  0  0  0  0  0  0  0
   17.6444   15.9234    7.2411 H   0  0  0  0  0  0  0  0  0  0  0  0
   15.9052   16.2749    6.9615 H   0  0  0  0  0  0  0  0  0  0  0  0
   16.4895   14.5763    6.9615 H   0  0  0  0  0  0  0  0  0  0  0  0
   15.1936   16.7767    5.0440 H   0  0  0  0  0  0  0  0  0  0  0  0
   16.1813   16.6174    3.5403 H   0  0  0  0  0  0  0  0  0  0  0  0
   13.1736   15.5922    4.9513 H   0  0  0  0  0  0  0  0  0  0  0  0
   11.8477   13.6044    4.2446 H   0  0  0  0  0  0  0  0  0  0  0  0
   12.9250   11.7862    2.9211 H   0  0  0  0  0  0  0  0  0  0  0  0
   15.3359   11.9539    2.3058 H   0  0  0  0  0  0  0  0  0  0  0  0
   16.6671   13.9372    3.0064 H   0  0  0  0  0  0  0  0  0  0  0  0
  2  1  1  0
  3  2  2  0
  4  3  1  0
  5  4  2  0
  6  5  1  0
  7  6  2  0
  7  2  1  0
  8  6  1  0
  9  5  1  0
 10  9  1  0
 11  9  1  0
 12 11  1  0
 13 12  2  0
 14 13  1  0
 15 14  2  0
 16 15  1  0
 17 16  2  0
 17 12  1  0
  1 18  1  0
  1 19  1  0
  1 20  1  0
  3 21  1  0
  4 22  1  0
  7 23  1  0
  8 24  1  0
  8 25  1  0
 10 26  1  0
 10 27  1  0
 10 28  1  0
 11 29  1  0
 11 30  1  0
 13 31  1  0
 14 32  1  0
 15 33  1  0
 16 34  1  0
 17 35  1  0
M  END
$$$$
=
     RDKit          3D

 31 32  0  0  0  0  0  0  0  0999 V2000
   21.2820   16.8700    4.6620 C   0  0  2  0  0  0  0  0  0  0  0  0
   22.4300   17.8570    4.7720 C   0  0  0  0  0  0  0  0  0  0  0  0
   21.8990   18.9620    5.6460 N   0  0  0  0  0  4  0  0  0  0  0  0
   20.3930   18.8790    5.6520 C   0  0  0  0  0  0  0  0  0  0  0  0
   20.0570   17.7920    4.6240 C   0  0  2  0  0  0  0  0  0  0  0  0
   18.7330   17.0760    4.7280 C   0  0  0  0  0  0  0  0  0  0  0  0
   17.8310   17.2340    5.7870 C   0  0  0  0  0  0  0  0  0  0  0  0
   16.6280   16.5170    5.8050 C   0  0  0  0  0  0  0  0  0  0  0  0
   16.3100   15.6370    4.7720 C   0  0  0  0  0  0  0  0  0  0  0  0
   17.1960   15.4670    3.7140 C   0  0  0  0  0  0  0  0  0  0  0  0
   18.3880   16.1810    3.7020 C   0  0  0  0  0  0  0  0  0  0  0  0
   19.2370   16.0060    2.6790 F   0  0  0  0  0  0  0  0  0  0  0  0
   21.2990   15.9770    5.8790 C   0  0  0  0  0  0  0  0  0  0  0  0
   21.7740   16.3340    6.9510 O   0  0  0  0  0  0  0  0  0  0  0  0
   19.7860   14.3440    6.6140 C   0  0  0  0  0  0  0  0  0  0  0  0
   20.7140   14.7870    5.6190 O   0  0  0  0  0  0  0  0  0  0  0  0
   21.3138   16.1977    3.7920 H   0  0  0  0  0  0  0  0  0  0  0  0
   23.3070   17.3823    5.2362 H   0  0  0  0  0  0  0  0  0  0  0  0
   22.7594   18.2247    3.7890 H   0  0  0  0  0  0  0  0  0  0  0  0
   22.2578   18.8504    6.6050 H   0  0  0  0  0  0  0  0  0  0  0  0
   22.2025   19.8774    5.2843 H   0  0  0  0  0  0  0  0  0  0  0  0
   20.0244   18.5966    6.6492 H   0  0  0  0  0  0  0  0  0  0  0  0
   19.9229   19.8427    5.4063 H   0  0  0  0  0  0  0  0  0  0  0  0
   19.8773   18.2617    3.6457 H   0  0  0  0  0  0  0  0  0  0  0  0
   18.0684   17.9250    6.6093 H   0  0  0  0  0  0  0  0  0  0  0  0
   15.9273   16.6497    6.6425 H   0  0  0  0  0  0  0  0  0  0  0  0
   15.3621   15.0793    4.7937 H   0  0  0  0  0  0  0  0  0  0  0  0
   16.9556   14.7739    2.8943 H   0  0  0  0  0  0  0  0  0  0  0  0
   20.1990   14.5412    7.6143 H   0  0  0  0  0  0  0  0  0  0  0  0
   18.8359   14.8857    6.4963 H   0  0  0  0  0  0  0  0  0  0  0  0
   19.6097   13.2646    6.4963 H   0  0  0  0  0  0  0  0  0  0  0  0
  2  1  1  0
  3  2  1  0
  4  3  1  0
  5  1  1  0
  5  4  1  0
  6  5  1  0
  7  6  2  0
  8  7  1  0
  9  8  2  0
 10  9  1  0
 11 10  2  0
 11  6  1  0
 12 11  1  0
 13  1  1  0
 14 13  2  0
 16 15  1  0
 16 13  1  0
  1 17  1  6
  2 18  1  0
  2 19  1  0
  3 20  1  0
  3 21  1  0
  4 22  1  0
  4 23  1  0
  5 24  1  6
  7 25  1  0
  8 26  1  0
  9 27  1  0
 10 28  1  0
 15 29  1  0
 15 30  1  0
 15 31  1  0
M  CHG  1   3   1
M  END
$$$$
=
     RDKit          3D

 21 21  0  0  0  0  0  0  0  0999 V2000
   17.1740   14.5140    3.8810 C   0  0  0  0  0  0  0  0  0  0  0  0
   16.1800   15.3850    4.3650 C   0  0  0  0  0  0  0  0  0  0  0  0
   14.8250   15.0730    4.2290 C   0  0  0  0  0  0  0  0  0  0  0  0
   14.4470   13.8930    3.5960 C   0  0  0  0  0  0  0  0  0  0  0  0
   15.4310   13.0350    3.1070 C   0  0  0  0  0  0  0  0  0  0  0  0
   16.8050   13.3050    3.2620 C   0  0  0  0  0  0  0  0  0  0  0  0
   17.7260   12.4660    2.5920 N   0  0  0  0  0  0  0  0  0  0  0  0
   18.5810   14.9560    4.0650 C   0  0  0  0  0  0  0  0  0  0  0  0
   19.4240   14.8940    3.1820 O   0  0  0  0  0  0  0  0  0  0  0  0
   19.6000   14.7080    6.1520 C   0  0  0  0  0  0  0  0  0  0  0  0
   18.7700   15.4960    5.2980 O   0  0  0  0  0  0  0  0  0  0  0  0
   15.0750   11.8710    2.4680 O   0  0  0  0  0  0  0  0  0  0  0  0
   16.4739   16.3239    4.8569 H   0  0  0  0  0  0  0  0  0  0  0  0
   14.0591   15.7583    4.6212 H   0  0  0  0  0  0  0  0  0  0  0  0
   13.3826   13.6397    3.4826 H   0  0  0  0  0  0  0  0  0  0  0  0
   18.7379   12.6352    2.6837 H   0  0  0  0  0  0  0  0  0  0  0  0
   17.3847   11.6859    2.0125 H   0  0  0  0  0  0  0  0  0  0  0  0
   19.3633   14.9327    7.2025 H   0  0  0  0  0  0  0  0  0  0  0  0
   19.4196   13.6408    5.9557 H   0  0  0  0  0  0  0  0  0  0  0  0
   20.6564   14.9435    5.9557 H   0  0  0  0  0  0  0  0  0  0  0  0
   15.7749   11.2627    2.1213 H   0  0  0  0  0  0  0  0  0  0  0  0
  2  1  2  0
  3  2  1  0
  4  3  2  0
  5  4  1  0
  6  5  2  0
  6  1  1  0
  7  6  1  0
  8  1  1  0
  9  8  2  0
 11  8  1  0
 11 10  1  0
 12  5  1  0
  2 13  1  0
  3 14  1  0
  4 15  1  0
  7 16  1  0
  7 17  1  0
 10 18  1  0
 10 19  1  0
 10 20  1  0
 12 21  1  0
M  END
$$$$
=
     RDKit          3D

 34 34  0  0  0  0  0  0  0  0999 V2000
   19.3700   16.5140    4.4710 C   0  0  1  0  0  0  0  0  0  0  0  0
   19.7810   15.8250    5.7960 C   0  0  0  0  0  0  0  0  0  0  0  0
   21.2100   15.2860    5.8200 C   0  0  0  0  0  0  0  0  0  0  0  0
   22.2120   16.2960    6.2590 N   0  0  0  0  0  4  0  0  0  0  0  0
   22.1240   17.7100    5.8070 C   0  0  0  0  0  0  0  0  0  0  0  0
   21.6150   17.8440    4.3770 C   0  0  0  0  0  0  0  0  0  0  0  0
   20.0820   17.8670    4.2720 C   0  0  0  0  0  0  0  0  0  0  0  0
   19.7270   15.6230    3.4110 O   0  0  0  0  0  0  0  0  0  0  0  0
   17.8060   16.6930    4.4820 C   0  0  0  0  0  0  0  0  0  0  0  0
   16.3710   14.7980    3.6540 C   0  0  0  0  0  0  0  0  0  0  0  0
   17.0520   15.4200    4.8510 N   0  0  0  0  0  4  0  0  0  0  0  0
   16.0410   15.6470    5.9570 C   0  0  0  0  0  0  0  0  0  0  0  0
   19.6779   16.5582    6.6095 H   0  0  0  0  0  0  0  0  0  0  0  0
   19.1190   14.9540    5.9110 H   0  0  0  0  0  0  0  0  0  0  0  0
   21.2494   14.4314    6.5114 H   0  0  0  0  0  0  0  0  0  0  0  0
   21.4672   14.9975    4.7901 H   0  0  0  0  0  0  0  0  0  0  0  0
   22.1768   16.3150    7.2882 H   0  0  0  0  0  0  0  0  0  0  0  0
   23.0772   15.9675    5.8069 H   0  0  0  0  0  0  0  0  0  0  0  0
   21.4381   18.2504    6.4759 H   0  0  0  0  0  0  0  0  0  0  0  0
   23.1401   18.1303    5.8368 H   0  0  0  0  0  0  0  0  0  0  0  0
   22.0071   18.7807    3.9541 H   0  0  0  0  0  0  0  0  0  0  0  0
   21.9640   16.9589    3.8249 H   0  0  0  0  0  0  0  0  0  0  0  0
   19.7029   18.5622    5.0355 H   0  0  0  0  0  0  0  0  0  0  0  0
   19.8603   18.1692    3.2378 H   0  0  0  0  0  0  0  0  0  0  0  0
   20.0667   14.7751    3.7929 H   0  0  0  0  0  0  0  0  0  0  0  0
   17.5498   17.4740    5.2130 H   0  0  0  0  0  0  0  0  0  0  0  0
   17.5036   16.9641    3.4597 H   0  0  0  0  0  0  0  0  0  0  0  0
   15.5992   14.0930    3.9965 H   0  0  0  0  0  0  0  0  0  0  0  0
   15.9033   15.5872    3.0471 H   0  0  0  0  0  0  0  0  0  0  0  0
   17.1148   14.2609    3.0471 H   0  0  0  0  0  0  0  0  0  0  0  0
   17.7656   14.7640    5.1994 H   0  0  0  0  0  0  0  0  0  0  0  0
   16.5349   15.5361    6.9336 H   0  0  0  0  0  0  0  0  0  0  0  0
   15.6239   16.6611    5.8701 H   0  0  0  0  0  0  0  0  0  0  0  0
   15.2304   14.9085    5.8701 H   0  0  0  0  0  0  0  0  0  0  0  0
  2  1  1  0
  3  2  1  0
  4  3  1  0
  5  4  1  0
  6  5  1  0
  7  6  1  0
  7  1  1  0
  1  8  1  6
  9  1  1  0
 11 10  1  0
 11  9  1  0
 12 11  1  0
  2 13  1  0
  2 14  1  0
  3 15  1  0
  3 16  1  0
  4 17  1  0
  4 18  1  0
  5 19  1  0
  5 20  1  0
  6 21  1  0
  6 22  1  0
  7 23  1  0
  7 24  1  0
  8 25  1  0
  9 26  1  0
  9 27  1  0
 10 28  1  0
 10 29  1  0
 10 30  1  0
 11 31  1  0
 12 32  1  0
 12 33  1  0
 12 34  1  0
M  CHG  2   4   1  11   1
M  END
$$$$
=
     RDKit          3D

 62 64  0  0  0  0  0  0  0  0999 V2000
   16.6550   13.4390    3.1530 C   0  0  0  0  0  0  0  0  0  0  0  0
   17.0410   12.5960    2.3380 O   0  0  0  0  0  0  0  0  0  0  0  0
   15.3340   13.5530    3.5540 N   0  0  0  0  0  0  0  0  0  0  0  0
   14.3660   12.5920    3.0140 C   0  0  0  0  0  0  0  0  0  0  0  0
   13.2150   12.3550    3.9870 C   0  0  0  0  0  0  0  0  0  0  0  0
   12.4480   13.6530    4.2670 C   0  0  0  0  0  0  0  0  0  0  0  0
   13.3460   14.9040    4.1640 C   0  0  0  0  0  0  0  0  0  0  0  0
   14.8140   14.5890    4.4510 C   0  0  0  0  0  0  0  0  0  0  0  0
   11.3910   13.7880    3.2840 O   0  0  0  0  0  0  0  0  0  0  0  0
   10.2240   14.1310    3.9030 C   0  0  0  0  0  0  0  0  0  0  0  0
    9.1810   14.3540    3.3050 O   0  0  0  0  0  0  0  0  0  0  0  0
   10.4050   14.1710    5.2660 N   0  0  0  0  0  0  0  0  0  0  0  0
   11.6740   13.5700    5.5830 C   0  0  0  0  0  0  0  0  0  0  0  0
   17.7060   14.3850    3.7410 C   0  0  0  0  0  0  0  0  0  0  0  0
   19.0770   13.8260    3.5040 N   0  0  0  0  0  4  0  0  0  0  0  0
    9.3480   14.1970    6.2730 C   0  0  0  0  0  0  0  0  0  0  0  0
    8.6160   12.8660    6.5080 C   0  0  0  0  0  0  0  0  0  0  0  0
    7.2710   12.8300    5.7800 C   0  0  0  0  0  0  0  0  0  0  0  0
    7.0440   11.4810    5.1130 N   0  0  2  0  0  4  0  0  0  0  0  0
    6.5300   11.6260    3.6890 C   0  0  0  0  0  0  0  0  0  0  0  0
    5.5120   10.5050    3.5290 C   0  0  0  0  0  0  0  0  0  0  0  0
    4.8400   10.4450    4.8940 C   0  0  2  0  0  0  0  0  0  0  0  0
    6.0630   10.5630    5.8330 C   0  0  0  0  0  0  0  0  0  0  0  0
    4.0290    9.1680    5.0730 N   0  0  0  0  0  4  0  0  0  0  0  0
    4.5980    7.9900    4.2930 C   0  0  0  0  0  0  0  0  0  0  0  0
    2.5680    9.3420    4.6980 C   0  0  0  0  0  0  0  0  0  0  0  0
   13.9611   12.9842    2.0694 H   0  0  0  0  0  0  0  0  0  0  0  0
   14.8830   11.6351    2.8496 H   0  0  0  0  0  0  0  0  0  0  0  0
   12.5245   11.6170    3.5527 H   0  0  0  0  0  0  0  0  0  0  0  0
   13.6318   11.9857    4.9356 H   0  0  0  0  0  0  0  0  0  0  0  0
   13.2646   15.3152    3.1470 H   0  0  0  0  0  0  0  0  0  0  0  0
   13.0032   15.6276    4.9183 H   0  0  0  0  0  0  0  0  0  0  0  0
   15.4074   15.5056    4.3181 H   0  0  0  0  0  0  0  0  0  0  0  0
   14.8881   14.2161    5.4832 H   0  0  0  0  0  0  0  0  0  0  0  0
   12.1875   14.1319    6.3771 H   0  0  0  0  0  0  0  0  0  0  0  0
   11.5782   12.5407    5.9591 H   0  0  0  0  0  0  0  0  0  0  0  0
   17.6237   15.3694    3.2571 H   0  0  0  0  0  0  0  0  0  0  0  0
   17.5372   14.4903    4.8229 H   0  0  0  0  0  0  0  0  0  0  0  0
   19.5331   13.6401    4.4086 H   0  0  0  0  0  0  0  0  0  0  0  0
   19.0023   12.9482    2.9703 H   0  0  0  0  0  0  0  0  0  0  0  0
   19.6374   14.5057    2.9703 H   0  0  0  0  0  0  0  0  0  0  0  0
    9.7984   14.5077    7.2273 H   0  0  0  0  0  0  0  0  0  0  0  0
    8.5872   14.8931    5.8901 H   0  0  0  0  0  0  0  0  0  0  0  0
    9.2446   12.0423    6.1387 H   0  0  0  0  0  0  0  0  0  0  0  0
    8.4276   12.7614    7.5867 H   0  0  0  0  0  0  0  0  0  0  0  0
    6.4648   13.0119    6.5059 H   0  0  0  0  0  0  0  0  0  0  0  0
    7.2742   13.6078    5.0022 H   0  0  0  0  0  0  0  0  0  0  0  0
    7.9808   11.0539    5.1419 H   0  0  0  0  0  0  0  0  0  0  0  0
    6.0525   12.6067    3.5470 H   0  0  0  0  0  0  0  0  0  0  0  0
    7.3389   11.5625    2.9463 H   0  0  0  0  0  0  0  0  0  0  0  0
    4.7828   10.7443    2.7409 H   0  0  0  0  0  0  0  0  0  0  0  0
    5.9674    9.5491    3.2309 H   0  0  0  0  0  0  0  0  0  0  0  0
    4.0857   11.2239    5.0791 H   0  0  0  0  0  0  0  0  0  0  0  0
    5.7658   10.9995    6.7979 H   0  0  0  0  0  0  0  0  0  0  0  0
    6.5076    9.5802    6.0485 H   0  0  0  0  0  0  0  0  0  0  0  0
    4.0936    8.9618    6.0801 H   0  0  0  0  0  0  0  0  0  0  0  0
    4.9660    7.2282    4.9960 H   0  0  0  0  0  0  0  0  0  0  0  0
    3.8107    7.5549    3.6598 H   0  0  0  0  0  0  0  0  0  0  0  0
    5.4282    8.3362    3.6598 H   0  0  0  0  0  0  0  0  0  0  0  0
    1.9608    9.4143    5.6124 H   0  0  0  0  0  0  0  0  0  0  0  0
    2.4486   10.2607    4.1050 H   0  0  0  0  0  0  0  0  0  0  0  0
    2.2361    8.4770    4.1050 H   0  0  0  0  0  0  0  0  0  0  0  0
  2  1  2  0
  3  1  1  0
  4  3  1  0
  5  4  1  0
  6  5  1  0
  7  6  1  0
  8  7  1  0
  8  3  1  0
  9  6  1  0
 10  9  1  0
 11 10  2  0
 12 10  1  0
 13 12  1  0
 13  6  1  0
 14  1  1  0
 15 14  1  0
 16 12  1  0
 17 16  1  0
 18 17  1  0
 19 18  1  0
 20 19  1  0
 21 20  1  0
 22 21  1  0
 23 22  1  0
 23 19  1  0
 24 22  1  0
 25 24  1  0
 26 24  1  0
  4 27  1  0
  4 28  1  0
  5 29  1  0
  5 30  1  0
  7 31  1  0
  7 32  1  0
  8 33  1  0
  8 34  1  0
 13 35  1  0
 13 36  1  0
 14 37  1  0
 14 38  1  0
 15 39  1  0
 15 40  1  0
 15 41  1  0
 16 42  1  0
 16 43  1  0
 17 44  1  0
 17 45  1  0
 18 46  1  0
 18 47  1  0
 19 48  1  6
 20 49  1  0
 20 50  1  0
 21 51  1  0
 21 52  1  0
 22 53  1  6
 23 54  1  0
 23 55  1  0
 24 56  1  0
 25 57  1  0
 25 58  1  0
 25 59  1  0
 26 60  1  0
 26 61  1  0
 26 62  1  0
M  CHG  3  15   1  19   1  24   1
M  END
$$$$
=
     RDKit          3D

 30 30  0  0  0  0  0  0  0  0999 V2000
   14.9030   14.4470    4.4010 C   0  0  0  0  0  0  0  0  0  0  0  0
   15.5260   13.8080    3.1650 C   0  0  0  0  0  0  0  0  0  0  0  0
   15.2750   12.2970    3.1270 C   0  0  0  0  0  0  0  0  0  0  0  0
   13.9300   11.9450    3.6750 N   0  0  0  0  0  4  0  0  0  0  0  0
   12.9080   13.0230    3.6350 C   0  0  0  0  0  0  0  0  0  0  0  0
   13.3810   14.2330    4.4390 C   0  0  0  0  0  0  0  0  0  0  0  0
   15.1900   15.9310    4.4690 N   0  0  0  0  0  4  0  0  0  0  0  0
   16.2510   15.4480    6.6560 C   0  0  0  0  0  0  0  0  0  0  0  0
   16.2570   16.3860    5.4550 C   0  0  0  0  0  0  0  0  0  0  0  0
   17.6070   16.3730    4.7480 C   0  0  0  0  0  0  0  0  0  0  0  0
   15.3619   13.9519    5.2695 H   0  0  0  0  0  0  0  0  0  0  0  0
   15.0872   14.2659    2.2662 H   0  0  0  0  0  0  0  0  0  0  0  0
   16.6124   13.9766    3.1998 H   0  0  0  0  0  0  0  0  0  0  0  0
   15.3364   11.9518    2.0844 H   0  0  0  0  0  0  0  0  0  0  0  0
   16.0376   11.8075    3.7505 H   0  0  0  0  0  0  0  0  0  0  0  0
   13.5679   11.1472    3.1334 H   0  0  0  0  0  0  0  0  0  0  0  0
   14.0812   11.7425    4.6735 H   0  0  0  0  0  0  0  0  0  0  0  0
   12.7396   13.3247    2.5907 H   0  0  0  0  0  0  0  0  0  0  0  0
   11.9727   12.6455    4.0740 H   0  0  0  0  0  0  0  0  0  0  0  0
   12.8942   15.1316    4.0320 H   0  0  0  0  0  0  0  0  0  0  0  0
   13.1100   14.0460    5.4886 H   0  0  0  0  0  0  0  0  0  0  0  0
   15.4861   16.2332    3.5299 H   0  0  0  0  0  0  0  0  0  0  0  0
   14.3152   16.3566    4.8075 H   0  0  0  0  0  0  0  0  0  0  0  0
   16.2548   16.0396    7.5833 H   0  0  0  0  0  0  0  0  0  0  0  0
   15.3488   14.8194    6.6258 H   0  0  0  0  0  0  0  0  0  0  0  0
   17.1451   14.8079    6.6258 H   0  0  0  0  0  0  0  0  0  0  0  0
   16.0568   17.4067    5.8128 H   0  0  0  0  0  0  0  0  0  0  0  0
   18.4129   16.3652    5.4966 H   0  0  0  0  0  0  0  0  0  0  0  0
   17.6826   15.4741    4.1185 H   0  0  0  0  0  0  0  0  0  0  0  0
   17.6999   17.2703    4.1185 H   0  0  0  0  0  0  0  0  0  0  0  0
  2  1  1  0
  3  2  1  0
  4  3  1  0
  5  4  1  0
  6  5  1  0
  6  1  1  0
  7  1  1  0
  9  7  1  0
  9  8  1  0
 10  9  1  0
  1 11  1  0
  2 12  1  0
  2 13  1  0
  3 14  1  0
  3 15  1  0
  4 16  1  0
  4 17  1  0
  5 18  1  0
  5 19  1  0
  6 20  1  0
  6 21  1  0
  7 22  1  0
  7 23  1  0
  8 24  1  0
  8 25  1  0
  8 26  1  0
  9 27  1  0
 10 28  1  0
 10 29  1  0
 10 30  1  0
M  CHG  2   4   1   7   1
M  END
$$$$
=
     RDKit          3D

 25 25  0  0  0  0  0  0  0  0999 V2000
   19.2030   14.4680    3.1880 O   0  0  0  0  0  0  0  0  0  0  0  0
   18.6350   15.2480    3.9590 C   0  0  0  0  0  0  0  0  0  0  0  0
   17.2800   15.2760    4.1450 N   0  0  0  0  0  0  0  0  0  0  0  0
   16.5270   16.1300    5.0550 C   0  0  0  0  0  0  0  0  0  0  0  0
   15.0710   15.8970    4.6790 C   0  0  0  0  0  0  0  0  0  0  0  0
   15.0720   14.4550    4.1870 C   0  0  0  0  0  0  0  0  0  0  0  0
   16.3970   14.3500    3.4470 C   0  0  0  0  0  0  0  0  0  0  0  0
   19.4960   16.2260    4.7610 C   0  0  0  0  0  0  0  0  0  0  0  0
   20.7180   15.5160    5.3040 N   0  0  0  0  0  4  0  0  0  0  0  0
   20.5180   14.8500    6.6160 C   0  0  0  0  0  0  0  0  0  0  0  0
   16.7097   15.8407    6.1004 H   0  0  0  0  0  0  0  0  0  0  0  0
   16.8164   17.1880    4.9716 H   0  0  0  0  0  0  0  0  0  0  0  0
   14.4129   16.0165    5.5523 H   0  0  0  0  0  0  0  0  0  0  0  0
   14.6965   16.6107    3.9304 H   0  0  0  0  0  0  0  0  0  0  0  0
   15.0322   13.7492    5.0297 H   0  0  0  0  0  0  0  0  0  0  0  0
   14.2028   14.2094    3.5591 H   0  0  0  0  0  0  0  0  0  0  0  0
   16.7906   13.3241    3.4984 H   0  0  0  0  0  0  0  0  0  0  0  0
   16.2991   14.5911    2.3782 H   0  0  0  0  0  0  0  0  0  0  0  0
   19.8148   17.0512    4.1072 H   0  0  0  0  0  0  0  0  0  0  0  0
   18.9057   16.6216    5.6007 H   0  0  0  0  0  0  0  0  0  0  0  0
   21.0026   14.7996    4.6208 H   0  0  0  0  0  0  0  0  0  0  0  0
   21.4335   16.2418    5.4527 H   0  0  0  0  0  0  0  0  0  0  0  0
   20.7322   15.5632    7.4256 H   0  0  0  0  0  0  0  0  0  0  0  0
   19.4766   14.5050    6.6971 H   0  0  0  0  0  0  0  0  0  0  0  0
   21.1970   13.9884    6.6971 H   0  0  0  0  0  0  0  0  0  0  0  0
  2  1  2  0
  3  2  1  0
  4  3  1  0
  5  4  1  0
  6  5  1  0
  7  6  1  0
  7  3  1  0
  8  2  1  0
  9  8  1  0
 10  9  1  0
  4 11  1  0
  4 12  1  0
  5 13  1  0
  5 14  1  0
  6 15  1  0
  6 16  1  0
  7 17  1  0
  7 18  1  0
  8 19  1  0
  8 20  1  0
  9 21  1  0
  9 22  1  0
 10 23  1  0
 10 24  1  0
 10 25  1  0
M  CHG  1   9   1
M  END
$$$$
=
     RDKit          3D

 37 38  0  0  0  0  0  0  0  0999 V2000
   13.9250   13.3950    3.7490 C   0  0  0  0  0  0  0  0  0  0  0  0
   14.6990   12.4430    3.0730 C   0  0  0  0  0  0  0  0  0  0  0  0
   16.0670   12.6450    2.8710 C   0  0  0  0  0  0  0  0  0  0  0  0
   16.6970   13.8100    3.3370 C   0  0  0  0  0  0  0  0  0  0  0  0
   15.9190   14.7620    4.0170 C   0  0  0  0  0  0  0  0  0  0  0  0
   14.5520   14.5560    4.2160 C   0  0  0  0  0  0  0  0  0  0  0  0
   12.4360   13.1520    3.9490 C   0  0  2  0  0  0  0  0  0  0  0  0
   11.8110   12.5750    2.6730 C   0  0  0  0  0  0  0  0  0  0  0  0
   10.3710   14.1010    5.1250 C   0  0  0  0  0  0  0  0  0  0  0  0
   11.6720   14.4160    4.3950 C   0  0  0  0  0  0  0  0  0  0  0  0
   18.1910   13.9850    3.1510 C   0  0  1  0  0  0  0  0  0  0  0  0
   18.8350   14.8770    4.1860 C   0  0  0  0  0  0  0  0  0  0  0  0
   19.2270   14.5290    5.4680 C   0  0  0  0  0  0  0  0  0  0  0  0
   19.8020   15.6210    6.1810 C   0  0  0  0  0  0  0  0  0  0  0  0
   19.8320   16.7710    5.4260 C   0  0  0  0  0  0  0  0  0  0  0  0
   19.1720   16.5340    3.8710 S   0  0  0  0  0  0  0  0  0  0  0  0
   18.8350   12.6500    3.0490 N   0  0  0  0  0  4  0  0  0  0  0  0
   14.2241   11.5250    2.6965 H   0  0  0  0  0  0  0  0  0  0  0  0
   16.6568   11.8827    2.3409 H   0  0  0  0  0  0  0  0  0  0  0  0
   16.3917   15.6797    4.3969 H   0  0  0  0  0  0  0  0  0  0  0  0
   13.9602   15.3163    4.7468 H   0  0  0  0  0  0  0  0  0  0  0  0
   12.3443   12.4216    4.7663 H   0  0  0  0  0  0  0  0  0  0  0  0
   11.0275   11.8517    2.9432 H   0  0  0  0  0  0  0  0  0  0  0  0
   11.3693   13.3896    2.0803 H   0  0  0  0  0  0  0  0  0  0  0  0
   12.5878   12.0698    2.0803 H   0  0  0  0  0  0  0  0  0  0  0  0
   10.5407   14.1421    6.2110 H   0  0  0  0  0  0  0  0  0  0  0  0
    9.6055   14.8397    4.8453 H   0  0  0  0  0  0  0  0  0  0  0  0
   10.0282   13.0939    4.8453 H   0  0  0  0  0  0  0  0  0  0  0  0
   11.4370   15.0160    3.5035 H   0  0  0  0  0  0  0  0  0  0  0  0
   12.3196   14.9602    5.0982 H   0  0  0  0  0  0  0  0  0  0  0  0
   18.3518   14.5259    2.2068 H   0  0  0  0  0  0  0  0  0  0  0  0
   19.1076   13.5201    5.8898 H   0  0  0  0  0  0  0  0  0  0  0  0
   20.1774   15.5526    7.2127 H   0  0  0  0  0  0  0  0  0  0  0  0
   20.2343   17.7304    5.7832 H   0  0  0  0  0  0  0  0  0  0  0  0
   19.0128   12.2815    3.9942 H   0  0  0  0  0  0  0  0  0  0  0  0
   18.2119   12.0061    2.5410 H   0  0  0  0  0  0  0  0  0  0  0  0
   19.7268   12.7369    2.5410 H   0  0  0  0  0  0  0  0  0  0  0  0
  2  1  2  0
  3  2  1  0
  4  3  2  0
  5  4  1  0
  6  5  2  0
  6  1  1  0
  7  1  1  0
  8  7  1  0
 10  9  1  0
 10  7  1  0
 11  4  1  0
 12 11  1  0
 13 12  2  0
 14 13  1  0
 15 14  2  0
 16 12  1  0
 16 15  1  0
 17 11  1  0
  2 18  1  0
  3 19  1  0
  5 20  1  0
  6 21  1  0
  7 22  1  1
  8 23  1  0
  8 24  1  0
  8 25  1  0
  9 26  1  0
  9 27  1  0
  9 28  1  0
 10 29  1  0
 10 30  1  0
 11 31  1  6
 13 32  1  0
 14 33  1  0
 15 34  1  0
 17 35  1  0
 17 36  1  0
 17 37  1  0
M  CHG  1  17   1
M  END
$$$$
=
     RDKit          3D

 48 49  0  0  0  0  0  0  0  0999 V2000
   16.9180   15.7650    5.5060 C   0  0  0  0  0  0  0  0  0  0  0  0
   15.9080   15.3060    6.5690 C   0  0  0  0  0  0  0  0  0  0  0  0
   17.3660   17.2060    5.8120 C   0  0  0  0  0  0  0  0  0  0  0  0
   18.1550   14.8570    5.5560 N   0  0  0  0  0  4  0  0  0  0  0  0
   19.3280   15.2220    6.4250 C   0  0  0  0  0  0  0  0  0  0  0  0
   20.6470   15.0330    5.6700 C   0  0  0  0  0  0  0  0  0  0  0  0
   21.2770   16.3520    5.3190 C   0  0  0  0  0  0  0  0  0  0  0  0
   22.2750   16.9210    6.1200 C   0  0  0  0  0  0  0  0  0  0  0  0
   22.8390   18.1510    5.7710 C   0  0  0  0  0  0  0  0  0  0  0  0
   22.4150   18.8210    4.6220 C   0  0  0  0  0  0  0  0  0  0  0  0
   21.4240   18.2640    3.8170 C   0  0  0  0  0  0  0  0  0  0  0  0
   20.8680   17.0410    4.1700 C   0  0  0  0  0  0  0  0  0  0  0  0
   19.9060   16.5120    3.4020 F   0  0  0  0  0  0  0  0  0  0  0  0
   16.2360   15.6340    4.0780 C   0  0  2  0  0  0  0  0  0  0  0  0
   12.6710   14.2180    4.1850 C   0  0  0  0  0  0  0  0  0  0  0  0
   12.8970   12.8910    3.8300 C   0  0  0  0  0  0  0  0  0  0  0  0
   14.1970   12.4440    3.5870 C   0  0  0  0  0  0  0  0  0  0  0  0
   15.2750   13.3250    3.6810 C   0  0  0  0  0  0  0  0  0  0  0  0
   15.0650   14.6700    4.0170 C   0  0  0  0  0  0  0  0  0  0  0  0
   13.7550   15.0960    4.2810 C   0  0  0  0  0  0  0  0  0  0  0  0
   10.3090   14.1370    3.9140 C   0  0  0  0  0  0  0  0  0  0  0  0
   11.4580   14.7870    4.4500 O   0  0  0  0  0  0  0  0  0  0  0  0
   17.1990   15.2940    3.0860 O   0  0  0  0  0  0  0  0  0  0  0  0
   16.3202   15.4933    7.5715 H   0  0  0  0  0  0  0  0  0  0  0  0
   14.9688   15.8657    6.4483 H   0  0  0  0  0  0  0  0  0  0  0  0
   15.7120   14.2304    6.4483 H   0  0  0  0  0  0  0  0  0  0  0  0
   17.4115   17.3523    6.9013 H   0  0  0  0  0  0  0  0  0  0  0  0
   18.3609   17.3809    5.3767 H   0  0  0  0  0  0  0  0  0  0  0  0
   16.6456   17.9142    5.3767 H   0  0  0  0  0  0  0  0  0  0  0  0
   17.8305   13.9312    5.8698 H   0  0  0  0  0  0  0  0  0  0  0  0
   18.5379   14.9298    4.6026 H   0  0  0  0  0  0  0  0  0  0  0  0
   19.2358   16.2745    6.7310 H   0  0  0  0  0  0  0  0  0  0  0  0
   19.3303   14.5644    7.3068 H   0  0  0  0  0  0  0  0  0  0  0  0
   21.3423   14.4624    6.3032 H   0  0  0  0  0  0  0  0  0  0  0  0
   20.4344   14.4934    4.7353 H   0  0  0  0  0  0  0  0  0  0  0  0
   22.6157   16.3985    7.0260 H   0  0  0  0  0  0  0  0  0  0  0  0
   23.6213   18.5937    6.4051 H   0  0  0  0  0  0  0  0  0  0  0  0
   22.8634   19.7886    4.3524 H   0  0  0  0  0  0  0  0  0  0  0  0
   21.0851   18.7874    2.9108 H   0  0  0  0  0  0  0  0  0  0  0  0
   15.8152   16.6296    3.8737 H   0  0  0  0  0  0  0  0  0  0  0  0
   12.0506   12.1941    3.7409 H   0  0  0  0  0  0  0  0  0  0  0  0
   14.3725   11.3914    3.3199 H   0  0  0  0  0  0  0  0  0  0  0  0
   16.2958   12.9621    3.4903 H   0  0  0  0  0  0  0  0  0  0  0  0
   13.5767   16.1424    4.5695 H   0  0  0  0  0  0  0  0  0  0  0  0
    9.6737   13.7776    4.7370 H   0  0  0  0  0  0  0  0  0  0  0  0
    9.7409   14.8475    3.2956 H   0  0  0  0  0  0  0  0  0  0  0  0
   10.6253   13.2840    3.2956 H   0  0  0  0  0  0  0  0  0  0  0  0
   18.0354   14.9987    3.5256 H   0  0  0  0  0  0  0  0  0  0  0  0
  2  1  1  0
  3  1  1  0
  4  1  1  0
  5  4  1  0
  6  5  1  0
  7  6  1  0
  8  7  2  0
  9  8  1  0
 10  9  2  0
 11 10  1  0
 12 11  2  0
 12  7  1  0
 13 12  1  0
 14  1  1  0
 16 15  2  0
 17 16  1  0
 18 17  2  0
 19 18  1  0
 19 14  1  0
 20 19  2  0
 20 15  1  0
 22 21  1  0
 22 15  1  0
 23 14  1  0
  2 24  1  0
  2 25  1  0
  2 26  1  0
  3 27  1  0
  3 28  1  0
  3 29  1  0
  4 30  1  0
  4 31  1  0
  5 32  1  0
  5 33  1  0
  6 34  1  0
  6 35  1  0
  8 36  1  0
  9 37  1  0
 10 38  1  0
 11 39  1  0
 14 40  1  6
 16 41  1  0
 17 42  1  0
 18 43  1  0
 20 44  1  0
 21 45  1  0
 21 46  1  0
 21 47  1  0
 23 48  1  0
M  CHG  1   4   1
M  END
$$$$
=
     RDKit          3D

 34 35  0  0  0  0  0  0  0  0999 V2000
   19.2300   14.1770    3.6170 O   0  0  0  0  0  0  0  0  0  0  0  0
   18.4230   14.9950    4.0680 C   0  0  0  0  0  0  0  0  0  0  0  0
   18.6450   15.5440    5.3280 N   0  0  0  0  0  0  0  0  0  0  0  0
   19.6850   14.9340    6.1590 C   0  0  0  0  0  0  0  0  0  0  0  0
   21.1160   15.2670    5.7160 C   0  0  0  0  0  0  0  0  0  0  0  0
   21.2070   16.5790    4.9910 N   0  0  0  0  0  4  0  0  0  0  0  0
   20.5990   17.7700    5.6610 C   0  0  0  0  0  0  0  0  0  0  0  0
   19.1480   17.9640    5.2290 C   0  0  0  0  0  0  0  0  0  0  0  0
   18.1930   16.8770    5.7230 C   0  0  0  0  0  0  0  0  0  0  0  0
   17.2330   15.4520    3.2480 C   0  0  0  0  0  0  0  0  0  0  0  0
   16.0370   14.5640    3.4450 C   0  0  0  0  0  0  0  0  0  0  0  0
   14.9470   14.9960    4.1980 C   0  0  0  0  0  0  0  0  0  0  0  0
   13.8620   14.1390    4.3600 C   0  0  0  0  0  0  0  0  0  0  0  0
   13.8920   12.8820    3.7710 C   0  0  0  0  0  0  0  0  0  0  0  0
   15.0120   12.5310    3.0370 C   0  0  0  0  0  0  0  0  0  0  0  0
   16.0770   13.3440    2.8550 N   0  0  0  0  0  0  0  0  0  0  0  0
   19.5524   15.2865    7.1925 H   0  0  0  0  0  0  0  0  0  0  0  0
   19.5688   13.8443    6.0638 H   0  0  0  0  0  0  0  0  0  0  0  0
   21.7590   15.3120    6.6074 H   0  0  0  0  0  0  0  0  0  0  0  0
   21.4405   14.4793    5.0201 H   0  0  0  0  0  0  0  0  0  0  0  0
   22.2056   16.7827    4.8419 H   0  0  0  0  0  0  0  0  0  0  0  0
   20.6568   16.4471    4.1303 H   0  0  0  0  0  0  0  0  0  0  0  0
   20.6328   17.6250    6.7509 H   0  0  0  0  0  0  0  0  0  0  0  0
   21.1716   18.6634    5.3712 H   0  0  0  0  0  0  0  0  0  0  0  0
   18.7992   18.9318    5.6185 H   0  0  0  0  0  0  0  0  0  0  0  0
   19.1378   17.9162    4.1301 H   0  0  0  0  0  0  0  0  0  0  0  0
   17.1955   17.0570    5.2957 H   0  0  0  0  0  0  0  0  0  0  0  0
   18.1628   16.9187    6.8218 H   0  0  0  0  0  0  0  0  0  0  0  0
   16.9676   16.4764    3.5483 H   0  0  0  0  0  0  0  0  0  0  0  0
   17.5163   15.4084    2.1860 H   0  0  0  0  0  0  0  0  0  0  0  0
   14.9440   15.9961    4.6561 H   0  0  0  0  0  0  0  0  0  0  0  0
   12.9886   14.4549    4.9494 H   0  0  0  0  0  0  0  0  0  0  0  0
   13.0491   12.1844    3.8845 H   0  0  0  0  0  0  0  0  0  0  0  0
   15.0370   11.5330    2.5751 H   0  0  0  0  0  0  0  0  0  0  0  0
  2  1  2  0
  3  2  1  0
  4  3  1  0
  5  4  1  0
  6  5  1  0
  7  6  1  0
  8  7  1  0
  9  3  1  0
  9  8  1  0
 10  2  1  0
 11 10  1  0
 12 11  2  0
 13 12  1  0
 14 13  2  0
 15 14  1  0
 16 15  2  0
 16 11  1  0
  4 17  1  0
  4 18  1  0
  5 19  1  0
  5 20  1  0
  6 21  1  0
  6 22  1  0
  7 23  1  0
  7 24  1  0
  8 25  1  0
  8 26  1  0
  9 27  1  0
  9 28  1  0
 10 29  1  0
 10 30  1  0
 12 31  1  0
 13 32  1  0
 14 33  1  0
 15 34  1  0
M  CHG  1   6   1
M  END
$$$$
=
     RDKit          3D

 36 36  0  0  0  0  0  0  0  0999 V2000
   19.6390   16.1780    5.1490 N   0  0  0  0  0  4  0  0  0  0  0  0
   20.8830   15.5100    5.7510 C   0  0  0  0  0  0  0  0  0  0  0  0
   21.9880   16.5560    6.0430 C   0  0  0  0  0  0  0  0  0  0  0  0
   22.2940   17.3840    4.8180 N   0  0  0  0  0  4  0  0  0  0  0  0
   21.0870   18.0410    4.1940 C   0  0  0  0  0  0  0  0  0  0  0  0
   19.9740   17.0040    3.8970 C   0  0  0  0  0  0  0  0  0  0  0  0
   18.8520   14.1190    3.9730 C   0  0  0  0  0  0  0  0  0  0  0  0
   18.4240   15.2290    4.9280 C   0  0  2  0  0  0  0  0  0  0  0  0
   17.1740   16.0120    4.4790 C   0  0  0  0  0  0  0  0  0  0  0  0
   16.0140   15.9730    5.5020 C   0  0  0  0  0  0  0  0  0  0  0  0
   16.4860   15.5290    6.8890 C   0  0  0  0  0  0  0  0  0  0  0  0
   14.9200   15.0120    5.0230 C   0  0  0  0  0  0  0  0  0  0  0  0
   19.3186   16.8322    5.8772 H   0  0  0  0  0  0  0  0  0  0  0  0
   20.6039   15.0098    6.6901 H   0  0  0  0  0  0  0  0  0  0  0  0
   21.2739   14.7798    5.0271 H   0  0  0  0  0  0  0  0  0  0  0  0
   21.6477   17.2215    6.8500 H   0  0  0  0  0  0  0  0  0  0  0  0
   22.9029   16.0223    6.3399 H   0  0  0  0  0  0  0  0  0  0  0  0
   22.9604   18.1222    5.0860 H   0  0  0  0  0  0  0  0  0  0  0  0
   22.6748   16.7371    4.1128 H   0  0  0  0  0  0  0  0  0  0  0  0
   20.6942   18.8004    4.8861 H   0  0  0  0  0  0  0  0  0  0  0  0
   21.3945   18.5030    3.2443 H   0  0  0  0  0  0  0  0  0  0  0  0
   20.3171   16.3268    3.1010 H   0  0  0  0  0  0  0  0  0  0  0  0
   19.0687   17.5437    3.5819 H   0  0  0  0  0  0  0  0  0  0  0  0
   19.1884   13.2465    4.5522 H   0  0  0  0  0  0  0  0  0  0  0  0
   18.0001   13.8320    3.3391 H   0  0  0  0  0  0  0  0  0  0  0  0
   19.6761   14.4782    3.3391 H   0  0  0  0  0  0  0  0  0  0  0  0
   18.1195   14.7544    5.8725 H   0  0  0  0  0  0  0  0  0  0  0  0
   17.4608   17.0619    4.3193 H   0  0  0  0  0  0  0  0  0  0  0  0
   16.8076   15.5321    3.5596 H   0  0  0  0  0  0  0  0  0  0  0  0
   15.6187   16.9966    5.5797 H   0  0  0  0  0  0  0  0  0  0  0  0
   15.9147   16.0664    7.6602 H   0  0  0  0  0  0  0  0  0  0  0  0
   16.3259   14.4466    7.0017 H   0  0  0  0  0  0  0  0  0  0  0  0
   17.5566   15.7550    7.0017 H   0  0  0  0  0  0  0  0  0  0  0  0
   14.4148   14.5683    5.8936 H   0  0  0  0  0  0  0  0  0  0  0  0
   14.1873   15.5638    4.4158 H   0  0  0  0  0  0  0  0  0  0  0  0
   15.3728   14.2143    4.4158 H   0  0  0  0  0  0  0  0  0  0  0  0
  2  1  1  0
  3  2  1  0
  4  3  1  0
  5  4  1  0
  6  1  1  0
  6  5  1  0
  8  7  1  0
  8  1  1  0
  9  8  1  0
 10  9  1  0
 11 10  1  0
 12 10  1  0
  1 13  1  0
  2 14  1  0
  2 15  1  0
  3 16  1  0
  3 17  1  0
  4 18  1  0
  4 19  1  0
  5 20  1  0
  5 21  1  0
  6 22  1  0
  6 23  1  0
  7 24  1  0
  7 25  1  0
  7 26  1  0
  8 27  1  1
  9 28  1  0
  9 29  1  0
 10 30  1  0
 11 31  1  0
 11 32  1  0
 11 33  1  0
 12 34  1  0
 12 35  1  0
 12 36  1  0
M  CHG  2   1   1   4   1
M  END
$$$$
=
     RDKit          3D

 26 26  0  0  0  0  0  0  0  0999 V2000
   15.9230   14.6710    3.6030 C   0  0  0  0  0  0  0  0  0  0  0  0
   15.9160   13.4680    2.8970 C   0  0  0  0  0  0  0  0  0  0  0  0
   14.7770   12.6590    2.8890 C   0  0  0  0  0  0  0  0  0  0  0  0
   13.6310   13.0390    3.5880 C   0  0  0  0  0  0  0  0  0  0  0  0
   13.6370   14.2390    4.2970 C   0  0  0  0  0  0  0  0  0  0  0  0
   14.7790   15.0530    4.3060 C   0  0  0  0  0  0  0  0  0  0  0  0
   12.5910   12.1600    3.4960 O   0  0  0  0  0  0  0  0  0  0  0  0
   11.6270   12.3960    2.4750 C   0  0  0  0  0  0  0  0  0  0  0  0
   17.0940   15.3730    3.5250 O   0  0  0  0  0  0  0  0  0  0  0  0
   17.6710   15.8100    4.7580 C   0  0  0  0  0  0  0  0  0  0  0  0
   19.0210   15.1060    4.8810 C   0  0  0  0  0  0  0  0  0  0  0  0
   19.5970   14.9080    3.5200 N   0  0  0  0  0  4  0  0  0  0  0  0
   16.8130   13.1543    2.3430 H   0  0  0  0  0  0  0  0  0  0  0  0
   14.7839   11.7138    2.3264 H   0  0  0  0  0  0  0  0  0  0  0  0
   12.7402   14.5496    4.8531 H   0  0  0  0  0  0  0  0  0  0  0  0
   14.7733   15.9974    4.8700 H   0  0  0  0  0  0  0  0  0  0  0  0
   10.6564   12.6336    2.9350 H   0  0  0  0  0  0  0  0  0  0  0  0
   11.9535   13.2407    1.8506 H   0  0  0  0  0  0  0  0  0  0  0  0
   11.5263   11.4960    1.8506 H   0  0  0  0  0  0  0  0  0  0  0  0
   17.8114   16.9009    4.7459 H   0  0  0  0  0  0  0  0  0  0  0  0
   17.0181   15.5681    5.6096 H   0  0  0  0  0  0  0  0  0  0  0  0
   19.7041   15.7230    5.4833 H   0  0  0  0  0  0  0  0  0  0  0  0
   18.8855   14.1302    5.3703 H   0  0  0  0  0  0  0  0  0  0  0  0
   20.5679   14.5743    3.6033 H   0  0  0  0  0  0  0  0  0  0  0  0
   19.0371   14.2112    3.0083 H   0  0  0  0  0  0  0  0  0  0  0  0
   19.5839   15.8018    3.0083 H   0  0  0  0  0  0  0  0  0  0  0  0
  2  1  2  0
  3  2  1  0
  4  3  2  0
  5  4  1  0
  6  5  2  0
  6  1  1  0
  7  4  1  0
  8  7  1  0
  9  1  1  0
 10  9  1  0
 11 10  1  0
 12 11  1  0
  2 13  1  0
  3 14  1  0
  5 15  1  0
  6 16  1  0
  8 17  1  0
  8 18  1  0
  8 19  1  0
 10 20  1  0
 10 21  1  0
 11 22  1  0
 11 23  1  0
 12 24  1  0
 12 25  1  0
 12 26  1  0
M  CHG  1  12   1
M  END
$$$$
=
     RDKit          3D

 35 36  0  0  0  0  0  0  0  0999 V2000
   28.9800   25.2900   13.2190 C   0  0  0  0  0  0  0  0  0  0  0  0
   28.8070   23.8860   13.2180 C   0  0  0  0  0  0  0  0  0  0  0  0
   29.4020   23.3060   14.2480 N   0  0  0  0  0  0  0  0  0  0  0  0
   29.9880   24.3000   14.9170 N   0  0  0  0  0  0  0  0  0  0  0  0
   29.6420   25.5470   14.4280 C   0  0  0  0  0  0  0  0  0  0  0  0
   30.8500   23.9550   16.0300 C   0  0  0  0  0  0  0  0  0  0  0  0
   28.5030   26.1990   12.1410 C   0  0  0  0  0  0  0  0  0  0  0  0
   27.8550   25.4610   11.0330 N   0  0  0  0  0  4  0  0  0  0  0  0
   30.0190   26.8040   15.1380 C   0  0  0  0  0  0  0  0  0  0  0  0
   29.0480   27.1870   16.2280 N   0  0  0  0  0  4  0  0  0  0  0  0
   29.6960   27.9370   17.4010 C   0  0  0  0  0  0  0  0  0  0  0  0
   28.6280   28.3150   18.4350 C   0  0  0  0  0  0  0  0  0  0  0  0
   27.6010   29.1060   17.8330 O   0  0  0  0  0  0  0  0  0  0  0  0
   26.9230   28.4030   16.7930 C   0  0  0  0  0  0  0  0  0  0  0  0
   27.8950   28.0370   15.6680 C   0  0  0  0  0  0  0  0  0  0  0  0
   28.2423   23.3388   12.4488 H   0  0  0  0  0  0  0  0  0  0  0  0
   30.3287   24.1636   16.9759 H   0  0  0  0  0  0  0  0  0  0  0  0
   31.1040   22.8859   15.9794 H   0  0  0  0  0  0  0  0  0  0  0  0
   31.7715   24.5536   15.9794 H   0  0  0  0  0  0  0  0  0  0  0  0
   27.7763   26.9053   12.5689 H   0  0  0  0  0  0  0  0  0  0  0  0
   29.3780   26.7244   11.7306 H   0  0  0  0  0  0  0  0  0  0  0  0
   27.2253   24.7438   11.4202 H   0  0  0  0  0  0  0  0  0  0  0  0
   27.3125   26.1178   10.4540 H   0  0  0  0  0  0  0  0  0  0  0  0
   28.5764   25.0080   10.4540 H   0  0  0  0  0  0  0  0  0  0  0  0
   31.0131   26.6661   15.5883 H   0  0  0  0  0  0  0  0  0  0  0  0
   30.0103   27.6141   14.3939 H   0  0  0  0  0  0  0  0  0  0  0  0
   28.6897   26.2934   16.5941 H   0  0  0  0  0  0  0  0  0  0  0  0
   30.4496   27.2908   17.8750 H   0  0  0  0  0  0  0  0  0  0  0  0
   30.1745   28.8530   17.0242 H   0  0  0  0  0  0  0  0  0  0  0  0
   28.1827   27.3972   18.8465 H   0  0  0  0  0  0  0  0  0  0  0  0
   29.1024   28.9008   19.2361 H   0  0  0  0  0  0  0  0  0  0  0  0
   26.4841   27.4825   17.2053 H   0  0  0  0  0  0  0  0  0  0  0  0
   26.1337   29.0504   16.3833 H   0  0  0  0  0  0  0  0  0  0  0  0
   27.3605   27.4635   14.8964 H   0  0  0  0  0  0  0  0  0  0  0  0
   28.3047   28.9588   15.2293 H   0  0  0  0  0  0  0  0  0  0  0  0
  2  1  1  0
  3  2  2  0
  4  3  1  0
  5  4  1  0
  5  1  2  0
  6  4  1  0
  7  1  1  0
  8  7  1  0
  9  5  1  0
 10  9  1  0
 11 10  1  0
 12 11  1  0
 13 12  1  0
 14 13  1  0
 15 14  1  0
 15 10  1  0
  2 16  1  0
  6 17  1  0
  6 18  1  0
  6 19  1  0
  7 20  1  0
  7 21  1  0
  8 22  1  0
  8 23  1  0
  8 24  1  0
  9 25  1  0
  9 26  1  0
 10 27  1  0
 11 28  1  0
 11 29  1  0
 12 30  1  0
 12 31  1  0
 14 32  1  0
 14 33  1  0
 15 34  1  0
 15 35  1  0
M  CHG  2   8   1  10   1
M  END
$$$$
=
     RDKit          3D

 29 30  0  0  0  0  0  0  0  0999 V2000
   18.8460   15.3610    4.8370 C   0  0  1  0  0  0  0  0  0  0  0  0
   18.1770   16.2880    5.8500 N   0  0  0  0  0  4  0  0  0  0  0  0
   16.9620   16.9550    5.2980 C   0  0  0  0  0  0  0  0  0  0  0  0
   15.9030   15.9030    4.9950 C   0  0  0  0  0  0  0  0  0  0  0  0
   16.4500   14.7350    4.2120 C   0  0  0  0  0  0  0  0  0  0  0  0
   17.8340   14.4610    4.1540 C   0  0  0  0  0  0  0  0  0  0  0  0
   18.2750   13.3280    3.4430 C   0  0  0  0  0  0  0  0  0  0  0  0
   17.3650   12.4830    2.8050 C   0  0  0  0  0  0  0  0  0  0  0  0
   16.0080   12.7610    2.8800 C   0  0  0  0  0  0  0  0  0  0  0  0
   15.5470   13.8700    3.5790 C   0  0  0  0  0  0  0  0  0  0  0  0
   19.7530   16.1440    3.8560 C   0  0  0  0  0  0  0  0  0  0  0  0
   19.5570   16.3000    2.6620 O   0  0  0  0  0  0  0  0  0  0  0  0
   21.5820   15.5640    5.2160 C   0  0  0  0  0  0  0  0  0  0  0  0
   20.8580   16.5980    4.5330 O   0  0  0  0  0  0  0  0  0  0  0  0
   15.0800   11.9660    2.2820 O   0  0  0  0  0  0  0  0  0  0  0  0
   19.5212   14.6862    5.3836 H   0  0  0  0  0  0  0  0  0  0  0  0
   17.9041   15.7344    6.6746 H   0  0  0  0  0  0  0  0  0  0  0  0
   18.8541   17.0243    6.0956 H   0  0  0  0  0  0  0  0  0  0  0  0
   16.5687   17.6703    6.0353 H   0  0  0  0  0  0  0  0  0  0  0  0
   17.2240   17.4906    4.3736 H   0  0  0  0  0  0  0  0  0  0  0  0
   15.4959   15.5293    5.9461 H   0  0  0  0  0  0  0  0  0  0  0  0
   15.1263   16.3809    4.3799 H   0  0  0  0  0  0  0  0  0  0  0  0
   19.3510   13.1059    3.3897 H   0  0  0  0  0  0  0  0  0  0  0  0
   17.7211   11.6041    2.2475 H   0  0  0  0  0  0  0  0  0  0  0  0
   14.4669   14.0702    3.6359 H   0  0  0  0  0  0  0  0  0  0  0  0
   21.4839   15.7041    6.3026 H   0  0  0  0  0  0  0  0  0  0  0  0
   21.1728   14.5825    4.9344 H   0  0  0  0  0  0  0  0  0  0  0  0
   22.6442   15.6128    4.9344 H   0  0  0  0  0  0  0  0  0  0  0  0
   14.1180   12.1890    2.3523 H   0  0  0  0  0  0  0  0  0  0  0  0
  2  1  1  0
  3  2  1  0
  4  3  1  0
  5  4  1  0
  6  5  2  0
  6  1  1  0
  7  6  1  0
  8  7  2  0
  9  8  1  0
 10  9  2  0
 10  5  1  0
 11  1  1  0
 12 11  2  0
 14 13  1  0
 14 11  1  0
 15  9  1  0
  1 16  1  1
  2 17  1  0
  2 18  1  0
  3 19  1  0
  3 20  1  0
  4 21  1  0
  4 22  1  0
  7 23  1  0
  8 24  1  0
 10 25  1  0
 13 26  1  0
 13 27  1  0
 13 28  1  0
 15 29  1  0
M  CHG  1   2   1
M  END
$$$$
=
     RDKit          3D

 41 42  0  0  0  0  0  0  0  0999 V2000
   17.7560   15.7690    4.1990 N   0  0  0  0  0  4  0  0  0  0  0  0
   18.7380   16.8980    4.3010 C   0  0  2  0  0  0  0  0  0  0  0  0
   19.3220   17.1810    2.9140 C   0  0  0  0  0  0  0  0  0  0  0  0
   20.6380   17.9220    3.1680 C   0  0  0  0  0  0  0  0  0  0  0  0
   20.8830   17.8750    4.6770 C   0  0  0  0  0  0  0  0  0  0  0  0
   20.0080   16.7320    5.1930 C   0  0  2  0  0  0  0  0  0  0  0  0
   20.7660   15.4530    5.0200 N   0  0  0  0  0  4  0  0  0  0  0  0
   16.3930   15.8480    4.8760 C   0  0  2  0  0  0  0  0  0  0  0  0
   16.5690   15.8700    6.3930 C   0  0  0  0  0  0  0  0  0  0  0  0
   13.5920   13.0160    3.1660 C   0  0  0  0  0  0  0  0  0  0  0  0
   14.9370   12.9450    2.8130 C   0  0  0  0  0  0  0  0  0  0  0  0
   15.8630   13.8290    3.3810 C   0  0  0  0  0  0  0  0  0  0  0  0
   15.4560   14.8090    4.3010 C   0  0  0  0  0  0  0  0  0  0  0  0
   14.1010   14.8380    4.6800 C   0  0  0  0  0  0  0  0  0  0  0  0
   13.1810   13.9610    4.1030 C   0  0  0  0  0  0  0  0  0  0  0  0
   11.2600   12.7300    2.8160 C   0  0  0  0  0  0  0  0  0  0  0  0
   12.5920   12.2490    2.6480 O   0  0  0  0  0  0  0  0  0  0  0  0
   17.5759   15.6279    3.1947 H   0  0  0  0  0  0  0  0  0  0  0  0
   18.2241   15.0150    4.7217 H   0  0  0  0  0  0  0  0  0  0  0  0
   18.1144   17.6762    4.7653 H   0  0  0  0  0  0  0  0  0  0  0  0
   19.5083   16.2399    2.3759 H   0  0  0  0  0  0  0  0  0  0  0  0
   18.6330   17.7734    2.2940 H   0  0  0  0  0  0  0  0  0  0  0  0
   21.4619   17.4257    2.6343 H   0  0  0  0  0  0  0  0  0  0  0  0
   20.5844   18.9598    2.8074 H   0  0  0  0  0  0  0  0  0  0  0  0
   21.9435   17.6742    4.8890 H   0  0  0  0  0  0  0  0  0  0  0  0
   20.6367   18.8310    5.1622 H   0  0  0  0  0  0  0  0  0  0  0  0
   19.7326   16.7327    6.2580 H   0  0  0  0  0  0  0  0  0  0  0  0
   20.9971   15.0631    5.9449 H   0  0  0  0  0  0  0  0  0  0  0  0
   20.1878   14.7791    4.4980 H   0  0  0  0  0  0  0  0  0  0  0  0
   21.6347   15.6367    4.4980 H   0  0  0  0  0  0  0  0  0  0  0  0
   15.8820   16.7966    4.6548 H   0  0  0  0  0  0  0  0  0  0  0  0
   15.5891   15.7475    6.8776 H   0  0  0  0  0  0  0  0  0  0  0  0
   17.2337   15.0480    6.6970 H   0  0  0  0  0  0  0  0  0  0  0  0
   17.0109   16.8304    6.6970 H   0  0  0  0  0  0  0  0  0  0  0  0
   15.2735   12.1918    2.0853 H   0  0  0  0  0  0  0  0  0  0  0  0
   16.9246   13.7546    3.1025 H   0  0  0  0  0  0  0  0  0  0  0  0
   13.7634   15.5593    5.4388 H   0  0  0  0  0  0  0  0  0  0  0  0
   12.1209   14.0168    4.3912 H   0  0  0  0  0  0  0  0  0  0  0  0
   11.0324   12.8122    3.8891 H   0  0  0  0  0  0  0  0  0  0  0  0
   11.1651   13.7192    2.3443 H   0  0  0  0  0  0  0  0  0  0  0  0
   10.5550   12.0297    2.3443 H   0  0  0  0  0  0  0  0  0  0  0  0
  2  1  1  0
  3  2  1  0
  4  3  1  0
  5  4  1  0
  6  5  1  0
  6  2  1  0
  7  6  1  0
  8  1  1  0
  9  8  1  0
 11 10  2  0
 12 11  1  0
 13 12  2  0
 13  8  1  0
 14 13  1  0
 15 14  2  0
 15 10  1  0
 17 16  1  0
 17 10  1  0
  1 18  1  0
  1 19  1  0
  2 20  1  1
  3 21  1  0
  3 22  1  0
  4 23  1  0
  4 24  1  0
  5 25  1  0
  5 26  1  0
  6 27  1  1
  7 28  1  0
  7 29  1  0
  7 30  1  0
  8 31  1  6
  9 32  1  0
  9 33  1  0
  9 34  1  0
 11 35  1  0
 12 36  1  0
 14 37  1  0
 15 38  1  0
 16 39  1  0
 16 40  1  0
 16 41  1  0
M  CHG  2   1   1   7   1
M  END
$$$$
=
     RDKit          3D

 32 32  0  0  0  0  0  0  0  0999 V2000
   20.2370   16.9820    4.6980 C   0  0  2  0  0  0  0  0  0  0  0  0
   20.8580   17.8480    3.6060 C   0  0  0  0  0  0  0  0  0  0  0  0
   21.9260   18.7910    4.1580 C   0  0  0  0  0  0  0  0  0  0  0  0
   22.9940   18.0350    4.9440 C   0  0  0  0  0  0  0  0  0  0  0  0
   22.3810   17.1860    6.0450 C   0  0  0  0  0  0  0  0  0  0  0  0
   21.3600   16.2890    5.4520 N   0  0  0  0  0  4  0  0  0  0  0  0
   19.3030   15.9120    4.1260 C   0  0  0  0  0  0  0  0  0  0  0  0
   19.8040   14.9510    3.5350 O   0  0  0  0  0  0  0  0  0  0  0  0
   17.8110   16.0900    4.3330 C   0  0  0  0  0  0  0  0  0  0  0  0
   17.4820   16.6000    5.7330 C   0  0  0  0  0  0  0  0  0  0  0  0
   15.3560   15.3100    5.3240 C   0  0  0  0  0  0  0  0  0  0  0  0
   16.3500   15.7930    6.3680 C   0  0  0  0  0  0  0  0  0  0  0  0
   19.6427   17.6332    5.3558 H   0  0  0  0  0  0  0  0  0  0  0  0
   21.3189   17.1923    2.8526 H   0  0  0  0  0  0  0  0  0  0  0  0
   20.0589   18.4622    3.1654 H   0  0  0  0  0  0  0  0  0  0  0  0
   22.4057   19.3165    3.3191 H   0  0  0  0  0  0  0  0  0  0  0  0
   21.4367   19.5019    4.8401 H   0  0  0  0  0  0  0  0  0  0  0  0
   23.5482   17.3806    4.2551 H   0  0  0  0  0  0  0  0  0  0  0  0
   23.6647   18.7718    5.4102 H   0  0  0  0  0  0  0  0  0  0  0  0
   23.1657   16.5840    6.5265 H   0  0  0  0  0  0  0  0  0  0  0  0
   21.9117   17.8365    6.7978 H   0  0  0  0  0  0  0  0  0  0  0  0
   20.9383   15.7404    6.2150 H   0  0  0  0  0  0  0  0  0  0  0  0
   21.8575   15.7173    4.7545 H   0  0  0  0  0  0  0  0  0  0  0  0
   17.4343   16.8131    3.5946 H   0  0  0  0  0  0  0  0  0  0  0  0
   17.3325   15.1072    4.2096 H   0  0  0  0  0  0  0  0  0  0  0  0
   18.3789   16.5167    6.3643 H   0  0  0  0  0  0  0  0  0  0  0  0
   17.1576   17.6480    5.6526 H   0  0  0  0  0  0  0  0  0  0  0  0
   14.4757   14.8822    5.8261 H   0  0  0  0  0  0  0  0  0  0  0  0
   15.0440   16.1570    4.6953 H   0  0  0  0  0  0  0  0  0  0  0  0
   15.8291   14.5413    4.6953 H   0  0  0  0  0  0  0  0  0  0  0  0
   15.8235   16.4276    7.0961 H   0  0  0  0  0  0  0  0  0  0  0  0
   16.7882   14.9124    6.8605 H   0  0  0  0  0  0  0  0  0  0  0  0
  2  1  1  0
  3  2  1  0
  4  3  1  0
  5  4  1  0
  6  1  1  0
  6  5  1  0
  7  1  1  0
  8  7  2  0
  9  7  1  0
 10  9  1  0
 12 11  1  0
 12 10  1  0
  1 13  1  1
  2 14  1  0
  2 15  1  0
  3 16  1  0
  3 17  1  0
  4 18  1  0
  4 19  1  0
  5 20  1  0
  5 21  1  0
  6 22  1  0
  6 23  1  0
  9 24  1  0
  9 25  1  0
 10 26  1  0
 10 27  1  0
 11 28  1  0
 11 29  1  0
 11 30  1  0
 12 31  1  0
 12 32  1  0
M  CHG  1   6   1
M  END
$$$$
=
     RDKit          3D

 44 45  0  0  0  0  0  0  0  0999 V2000
   19.7250   16.7090    4.6440 N   0  0  0  0  0  4  0  0  0  0  0  0
   20.8640   15.7600    4.9020 C   0  0  0  0  0  0  0  0  0  0  0  0
   21.8980   16.4410    5.7870 C   0  0  0  0  0  0  0  0  0  0  0  0
   22.5100   17.6240    5.0400 C   0  0  0  0  0  0  0  0  0  0  0  0
   21.4840   18.4360    4.2420 C   0  0  0  0  0  0  0  0  0  0  0  0
   20.0420   18.1770    4.6630 C   0  0  0  0  0  0  0  0  0  0  0  0
   23.2540   18.4930    6.0020 N   0  0  0  0  0  4  0  0  0  0  0  0
   18.8150   16.2500    3.4780 C   0  0  0  0  0  0  0  0  0  0  0  0
   13.4360   14.3830    4.9400 C   0  0  0  0  0  0  0  0  0  0  0  0
   14.6750   15.1180    4.4300 C   0  0  1  0  0  0  0  0  0  0  0  0
   15.5750   15.5340    5.5960 C   0  0  0  0  0  0  0  0  0  0  0  0
   16.8380   16.2500    5.1110 C   0  0  0  0  0  0  0  0  0  0  0  0
   17.6260   15.4370    4.0740 C   0  0  1  0  0  0  0  0  0  0  0  0
   16.7160   14.9410    2.9380 C   0  0  0  0  0  0  0  0  0  0  0  0
   15.4470   14.2470    3.4340 C   0  0  0  0  0  0  0  0  0  0  0  0
   18.2450   14.3170    4.7520 O   0  0  0  0  0  0  0  0  0  0  0  0
   19.1540   16.6334    5.4979 H   0  0  0  0  0  0  0  0  0  0  0  0
   20.4844   14.8596    5.4071 H   0  0  0  0  0  0  0  0  0  0  0  0
   21.3285   15.4747    3.9466 H   0  0  0  0  0  0  0  0  0  0  0  0
   21.4135   16.7997    6.7071 H   0  0  0  0  0  0  0  0  0  0  0  0
   22.6895   15.7219    6.0448 H   0  0  0  0  0  0  0  0  0  0  0  0
   23.2073   17.2141    4.2945 H   0  0  0  0  0  0  0  0  0  0  0  0
   21.7009   19.5052    4.3827 H   0  0  0  0  0  0  0  0  0  0  0  0
   21.5742   18.1264    3.1903 H   0  0  0  0  0  0  0  0  0  0  0  0
   19.8909   18.5634    5.6818 H   0  0  0  0  0  0  0  0  0  0  0  0
   19.3751   18.6862    3.9517 H   0  0  0  0  0  0  0  0  0  0  0  0
   23.0184   18.2178    6.9662 H   0  0  0  0  0  0  0  0  0  0  0  0
   24.2670   18.3830    5.8514 H   0  0  0  0  0  0  0  0  0  0  0  0
   22.9893   19.4769    5.8514 H   0  0  0  0  0  0  0  0  0  0  0  0
   18.4312   17.1282    2.9381 H   0  0  0  0  0  0  0  0  0  0  0  0
   19.3862   15.6252    2.7756 H   0  0  0  0  0  0  0  0  0  0  0  0
   13.4364   14.3832    6.0400 H   0  0  0  0  0  0  0  0  0  0  0  0
   12.5317   14.8908    4.5735 H   0  0  0  0  0  0  0  0  0  0  0  0
   13.4481   13.3459    4.5735 H   0  0  0  0  0  0  0  0  0  0  0  0
   14.3457   16.0288    3.9085 H   0  0  0  0  0  0  0  0  0  0  0  0
   15.0128   16.2112    6.2559 H   0  0  0  0  0  0  0  0  0  0  0  0
   15.8821   14.6243    6.1327 H   0  0  0  0  0  0  0  0  0  0  0  0
   16.5455   17.2082    4.6569 H   0  0  0  0  0  0  0  0  0  0  0  0
   17.4918   16.3928    5.9840 H   0  0  0  0  0  0  0  0  0  0  0  0
   16.4231   15.8051    2.3236 H   0  0  0  0  0  0  0  0  0  0  0  0
   17.2891   14.1975    2.3646 H   0  0  0  0  0  0  0  0  0  0  0  0
   15.7262   13.3042    3.9271 H   0  0  0  0  0  0  0  0  0  0  0  0
   14.7970   14.0616    2.5662 H   0  0  0  0  0  0  0  0  0  0  0  0
   18.1747   14.4442    5.7313 H   0  0  0  0  0  0  0  0  0  0  0  0
  2  1  1  0
  3  2  1  0
  4  3  1  0
  5  4  1  0
  6  5  1  0
  6  1  1  0
  7  4  1  0
  8  1  1  0
 10  9  1  0
 11 10  1  0
 12 11  1  0
 13 12  1  0
 13  8  1  0
 14 13  1  0
 15 10  1  0
 15 14  1  0
 13 16  1  1
  1 17  1  0
  2 18  1  0
  2 19  1  0
  3 20  1  0
  3 21  1  0
  4 22  1  0
  5 23  1  0
  5 24  1  0
  6 25  1  0
  6 26  1  0
  7 27  1  0
  7 28  1  0
  7 29  1  0
  8 30  1  0
  8 31  1  0
  9 32  1  0
  9 33  1  0
  9 34  1  0
 10 35  1  6
 11 36  1  0
 11 37  1  0
 12 38  1  0
 12 39  1  0
 14 40  1  0
 14 41  1  0
 15 42  1  0
 15 43  1  0
 16 44  1  0
M  CHG  2   1   1   7   1
M  END
$$$$
=
     RDKit          3D

 45 47  0  0  0  0  0  0  0  0999 V2000
   28.7350   26.0380   14.1920 N   0  0  0  0  0  0  0  0  0  0  0  0
   27.4210   25.6660   14.7900 C   0  0  0  0  0  0  0  0  0  0  0  0
   26.6800   24.5990   13.9520 C   0  0  0  0  0  0  0  0  0  0  0  0
   26.4820   25.0110   12.5380 N   0  0  0  0  0  0  0  0  0  0  0  0
   27.4460   26.0200   12.0410 C   0  0  0  0  0  0  0  0  0  0  0  0
   28.8190   25.8490   12.7240 C   0  0  0  0  0  0  0  0  0  0  0  0
   25.1400   25.2700   12.2150 C   0  0  0  0  0  0  0  0  0  0  0  0
   24.4130   26.3030   12.8230 C   0  0  0  0  0  0  0  0  0  0  0  0
   23.0700   26.5280   12.5020 C   0  0  0  0  0  0  0  0  0  0  0  0
   22.4300   25.7510   11.5400 C   0  0  0  0  0  0  0  0  0  0  0  0
   23.1250   24.6770   10.9810 C   0  0  0  0  0  0  0  0  0  0  0  0
   24.4770   24.4400   11.2900 C   0  0  0  0  0  0  0  0  0  0  0  0
   25.1910   23.2850   10.6440 C   0  0  0  0  0  0  0  0  0  0  0  0
   21.0570   25.9010   11.3100 N   0  0  0  0  0  0  0  0  0  0  0  0
   30.2520   27.1600   15.7670 C   0  0  0  0  0  0  0  0  0  0  0  0
   30.6960   28.3150   16.4230 C   0  0  0  0  0  0  0  0  0  0  0  0
   30.1850   29.5590   16.0700 C   0  0  0  0  0  0  0  0  0  0  0  0
   29.2210   29.6470   15.0730 C   0  0  0  0  0  0  0  0  0  0  0  0
   28.7560   28.4880   14.4370 C   0  0  0  0  0  0  0  0  0  0  0  0
   29.2480   27.2150   14.7710 C   0  0  0  0  0  0  0  0  0  0  0  0
   30.2950   25.5350   17.4210 C   0  0  0  0  0  0  0  0  0  0  0  0
   30.8460   25.9910   16.1850 O   0  0  0  0  0  0  0  0  0  0  0  0
   27.5919   25.2670   15.8007 H   0  0  0  0  0  0  0  0  0  0  0  0
   26.7942   26.5695   14.8174 H   0  0  0  0  0  0  0  0  0  0  0  0
   27.2678   23.6694   13.9679 H   0  0  0  0  0  0  0  0  0  0  0  0
   25.6843   24.4606   14.3986 H   0  0  0  0  0  0  0  0  0  0  0  0
   27.5663   25.8993   10.9543 H   0  0  0  0  0  0  0  0  0  0  0  0
   27.0586   27.0227   12.2743 H   0  0  0  0  0  0  0  0  0  0  0  0
   29.1952   24.8363   12.5170 H   0  0  0  0  0  0  0  0  0  0  0  0
   29.4976   26.6150   12.3205 H   0  0  0  0  0  0  0  0  0  0  0  0
   24.9069   26.9476   13.5650 H   0  0  0  0  0  0  0  0  0  0  0  0
   22.5141   27.3268   13.0148 H   0  0  0  0  0  0  0  0  0  0  0  0
   22.6051   24.0024   10.2849 H   0  0  0  0  0  0  0  0  0  0  0  0
   25.5994   22.6244   11.4230 H   0  0  0  0  0  0  0  0  0  0  0  0
   24.4840   22.7206   10.0182 H   0  0  0  0  0  0  0  0  0  0  0  0
   26.0119   23.6651   10.0182 H   0  0  0  0  0  0  0  0  0  0  0  0
   20.5881   25.3239   10.5973 H   0  0  0  0  0  0  0  0  0  0  0  0
   20.5159   26.5885   11.8535 H   0  0  0  0  0  0  0  0  0  0  0  0
   31.4508   28.2378   17.2194 H   0  0  0  0  0  0  0  0  0  0  0  0
   30.5416   30.4678   16.5768 H   0  0  0  0  0  0  0  0  0  0  0  0
   28.8215   30.6297   14.7820 H   0  0  0  0  0  0  0  0  0  0  0  0
   27.9862   28.5772   13.6564 H   0  0  0  0  0  0  0  0  0  0  0  0
   30.8451   25.9902   18.2578 H   0  0  0  0  0  0  0  0  0  0  0  0
   29.2351   25.8237   17.4787 H   0  0  0  0  0  0  0  0  0  0  0  0
   30.3804   24.4398   17.4787 H   0  0  0  0  0  0  0  0  0  0  0  0
  2  1  1  0
  3  2  1  0
  4  3  1  0
  5  4  1  0
  6  5  1  0
  6  1  1  0
  7  4  1  0
  8  7  2  0
  9  8  1  0
 10  9  2  0
 11 10  1  0
 12 11  2  0
 12  7  1  0
 13 12  1  0
 14 10  1  0
 16 15  2  0
 17 16  1  0
 18 17  2  0
 19 18  1  0
 20 15  1  0
 20  1  1  0
 20 19  2  0
 22 15  1  0
 22 21  1  0
  2 23  1  0
  2 24  1  0
  3 25  1  0
  3 26  1  0
  5 27  1  0
  5 28  1  0
  6 29  1  0
  6 30  1  0
  8 31  1  0
  9 32  1  0
 11 33  1  0
 13 34  1  0
 13 35  1  0
 13 36  1  0
 14 37  1  0
 14 38  1  0
 16 39  1  0
 17 40  1  0
 18 41  1  0
 19 42  1  0
 21 43  1  0
 21 44  1  0
 21 45  1  0
M  END
$$$$
=
     RDKit          3D

 36 36  0  0  0  0  0  0  0  0999 V2000
   17.5930   15.5210    4.2710 N   0  0  0  0  0  0  0  0  0  0  0  0
   18.9400   15.6110    3.9620 C   0  0  0  0  0  0  0  0  0  0  0  0
   19.4770   14.8870    3.1200 O   0  0  0  0  0  0  0  0  0  0  0  0
   19.8240   16.5820    4.7330 C   0  0  1  0  0  0  0  0  0  0  0  0
   20.9410   15.8100    5.4510 C   0  0  0  0  0  0  0  0  0  0  0  0
   21.9400   16.7590    6.1110 C   0  0  0  0  0  0  0  0  0  0  0  0
   22.5210   17.7470    5.1100 C   0  0  0  0  0  0  0  0  0  0  0  0
   21.4050   18.4690    4.4290 N   0  0  0  0  0  4  0  0  0  0  0  0
   20.4400   17.5570    3.7260 C   0  0  0  0  0  0  0  0  0  0  0  0
   16.8270   16.5290    5.0120 C   0  0  0  0  0  0  0  0  0  0  0  0
   16.3390   15.2870    7.1410 C   0  0  0  0  0  0  0  0  0  0  0  0
   16.9310   16.2960    6.4850 C   0  0  0  0  0  0  0  0  0  0  0  0
   16.8120   14.4590    3.6300 C   0  0  0  0  0  0  0  0  0  0  0  0
   15.3740   14.8760    3.5800 C   0  0  0  0  0  0  0  0  0  0  0  0
   14.3420   14.0970    3.9310 C   0  0  0  0  0  0  0  0  0  0  0  0
   19.2318   17.1250    5.4843 H   0  0  0  0  0  0  0  0  0  0  0  0
   20.4927   15.1684    6.2239 H   0  0  0  0  0  0  0  0  0  0  0  0
   21.4785   15.2059    4.7053 H   0  0  0  0  0  0  0  0  0  0  0  0
   21.4280   17.3181    6.9080 H   0  0  0  0  0  0  0  0  0  0  0  0
   22.7659   16.1584    6.5199 H   0  0  0  0  0  0  0  0  0  0  0  0
   23.1606   18.4708    5.6363 H   0  0  0  0  0  0  0  0  0  0  0  0
   23.1219   17.2069    4.3635 H   0  0  0  0  0  0  0  0  0  0  0  0
   20.8865   19.0088    5.1366 H   0  0  0  0  0  0  0  0  0  0  0  0
   21.8294   19.0722    3.7100 H   0  0  0  0  0  0  0  0  0  0  0  0
   19.6424   18.1561    3.2623 H   0  0  0  0  0  0  0  0  0  0  0  0
   20.9746   16.9896    2.9500 H   0  0  0  0  0  0  0  0  0  0  0  0
   17.2222   17.5280    4.7759 H   0  0  0  0  0  0  0  0  0  0  0  0
   15.7698   16.4565    4.7168 H   0  0  0  0  0  0  0  0  0  0  0  0
   16.4673   15.1880    8.2290 H   0  0  0  0  0  0  0  0  0  0  0  0
   15.7251   14.5585    6.5910 H   0  0  0  0  0  0  0  0  0  0  0  0
   17.5360   17.0022    7.0726 H   0  0  0  0  0  0  0  0  0  0  0  0
   17.1839   14.2928    2.6082 H   0  0  0  0  0  0  0  0  0  0  0  0
   16.9095   13.5263    4.2049 H   0  0  0  0  0  0  0  0  0  0  0  0
   15.1494   15.8944    3.2302 H   0  0  0  0  0  0  0  0  0  0  0  0
   13.3140   14.4827    3.8638 H   0  0  0  0  0  0  0  0  0  0  0  0
   14.5227   13.0718    4.2863 H   0  0  0  0  0  0  0  0  0  0  0  0
  2  1  1  0
  3  2  2  0
  4  2  1  0
  5  4  1  0
  6  5  1  0
  7  6  1  0
  8  7  1  0
  9  8  1  0
  9  4  1  0
 10  1  1  0
 12 11  2  3
 12 10  1  0
 13  1  1  0
 14 13  1  0
 15 14  2  3
  4 16  1  1
  5 17  1  0
  5 18  1  0
  6 19  1  0
  6 20  1  0
  7 21  1  0
  7 22  1  0
  8 23  1  0
  8 24  1  0
  9 25  1  0
  9 26  1  0
 10 27  1  0
 10 28  1  0
 11 29  1  0
 11 30  1  0
 12 31  1  0
 13 32  1  0
 13 33  1  0
 14 34  1  0
 15 35  1  0
 15 36  1  0
M  CHG  1   8   1
M  END
$$$$
=
     RDKit          3D

 25 26  0  0  0  0  0  0  0  0999 V2000
   15.4760   15.9380    4.9130 C   0  0  0  0  0  0  0  0  0  0  0  0
   15.2450   14.6910    4.0970 C   0  0  0  0  0  0  0  0  0  0  0  0
   16.3530   14.0510    3.5240 C   0  0  0  0  0  0  0  0  0  0  0  0
   16.1970   12.8950    2.7640 C   0  0  0  0  0  0  0  0  0  0  0  0
   14.9290   12.3600    2.5640 C   0  0  0  0  0  0  0  0  0  0  0  0
   13.8010   12.9780    3.1220 C   0  0  0  0  0  0  0  0  0  0  0  0
   13.9580   14.1400    3.9170 C   0  0  0  0  0  0  0  0  0  0  0  0
   12.7420   14.8180    4.5170 C   0  0  0  0  0  0  0  0  0  0  0  0
   11.5010   13.9310    4.5400 C   0  0  0  0  0  0  0  0  0  0  0  0
   11.3280   13.2830    3.2080 N   0  0  0  0  0  4  0  0  0  0  0  0
   12.4520   12.3530    2.9010 C   0  0  0  0  0  0  0  0  0  0  0  0
   15.4300   15.6894    5.9836 H   0  0  0  0  0  0  0  0  0  0  0  0
   16.4664   16.3535    4.6753 H   0  0  0  0  0  0  0  0  0  0  0  0
   14.7002   16.6807    4.6753 H   0  0  0  0  0  0  0  0  0  0  0  0
   17.3594   14.4679    3.6770 H   0  0  0  0  0  0  0  0  0  0  0  0
   17.0768   12.4048    2.3217 H   0  0  0  0  0  0  0  0  0  0  0  0
   14.8103   11.4458    1.9639 H   0  0  0  0  0  0  0  0  0  0  0  0
   12.9805   15.1102    5.5503 H   0  0  0  0  0  0  0  0  0  0  0  0
   12.5085   15.6853    3.8820 H   0  0  0  0  0  0  0  0  0  0  0  0
   11.6183   13.1563    5.3121 H   0  0  0  0  0  0  0  0  0  0  0  0
   10.6164   14.5441    4.7670 H   0  0  0  0  0  0  0  0  0  0  0  0
   10.4451   12.7526    3.2063 H   0  0  0  0  0  0  0  0  0  0  0  0
   11.3146   14.0210    2.4896 H   0  0  0  0  0  0  0  0  0  0  0  0
   12.3637   11.4687    3.5493 H   0  0  0  0  0  0  0  0  0  0  0  0
   12.3805   12.0866    1.8361 H   0  0  0  0  0  0  0  0  0  0  0  0
  2  1  1  0
  3  2  2  0
  4  3  1  0
  5  4  2  0
  6  5  1  0
  7  6  2  0
  7  2  1  0
  8  7  1  0
  9  8  1  0
 10  9  1  0
 11 10  1  0
 11  6  1  0
  1 12  1  0
  1 13  1  0
  1 14  1  0
  3 15  1  0
  4 16  1  0
  5 17  1  0
  8 18  1  0
  8 19  1  0
  9 20  1  0
  9 21  1  0
 10 22  1  0
 10 23  1  0
 11 24  1  0
 11 25  1  0
M  CHG  1  10   1
M  END
$$$$
=
     RDKit          3D

 25 26  0  0  0  0  0  0  0  0999 V2000
   17.6640   14.6010    3.7650 C   0  0  0  0  0  0  0  0  0  0  0  0
   17.1840   13.4560    3.1520 C   0  0  0  0  0  0  0  0  0  0  0  0
   15.7680   13.4240    3.3020 C   0  0  0  0  0  0  0  0  0  0  0  0
   15.4060   14.5660    4.0090 C   0  0  0  0  0  0  0  0  0  0  0  0
   16.5640   15.2520    4.2840 N   0  0  0  0  0  0  0  0  0  0  0  0
   14.0780   14.8720    4.3150 C   0  0  0  0  0  0  0  0  0  0  0  0
   13.0950   13.9680    3.8950 C   0  0  0  0  0  0  0  0  0  0  0  0
   13.4210   12.7800    3.2360 C   0  0  0  0  0  0  0  0  0  0  0  0
   14.7570   12.5330    2.8910 C   0  0  0  0  0  0  0  0  0  0  0  0
   20.9270   15.3360    5.4260 C   0  0  0  0  0  0  0  0  0  0  0  0
   19.5660   14.9470    5.1620 N   0  0  0  0  0  0  0  0  0  0  0  0
   18.9950   15.1440    3.9270 C   0  0  0  0  0  0  0  0  0  0  0  0
   19.5750   15.7270    3.0150 O   0  0  0  0  0  0  0  0  0  0  0  0
   12.4040   11.9560    2.7330 N   0  0  0  0  0  0  0  0  0  0  0  0
   17.7932   12.6991    2.6364 H   0  0  0  0  0  0  0  0  0  0  0  0
   16.6055   16.1370    4.8092 H   0  0  0  0  0  0  0  0  0  0  0  0
   13.8147   15.7877    4.8647 H   0  0  0  0  0  0  0  0  0  0  0  0
   12.0373   14.1993    4.0891 H   0  0  0  0  0  0  0  0  0  0  0  0
   15.0162   11.6429    2.2990 H   0  0  0  0  0  0  0  0  0  0  0  0
   21.0907   15.3828    6.5127 H   0  0  0  0  0  0  0  0  0  0  0  0
   21.6118   14.5976    4.9835 H   0  0  0  0  0  0  0  0  0  0  0  0
   21.1182   16.3247    4.9835 H   0  0  0  0  0  0  0  0  0  0  0  0
   19.0098   14.5130    5.9125 H   0  0  0  0  0  0  0  0  0  0  0  0
   12.6439   11.0801    2.2471 H   0  0  0  0  0  0  0  0  0  0  0  0
   11.4170   12.2267    2.8494 H   0  0  0  0  0  0  0  0  0  0  0  0
  2  1  2  0
  3  2  1  0
  4  3  2  0
  5  4  1  0
  5  1  1  0
  6  4  1  0
  7  6  2  0
  8  7  1  0
  9  8  2  0
  9  3  1  0
 11 10  1  0
 12 11  1  0
 12  1  1  0
 13 12  2  0
 14  8  1  0
  2 15  1  0
  5 16  1  0
  6 17  1  0
  7 18  1  0
  9 19  1  0
 10 20  1  0
 10 21  1  0
 10 22  1  0
 11 23  1  0
 14 24  1  0
 14 25  1  0
M  END
$$$$
=
     RDKit          3D

 31 33  0  0  0  0  0  0  0  0999 V2000
   15.5480   15.6770    5.8910 O   0  0  0  0  0  0  0  0  0  0  0  0
   16.6900   15.6670    5.4740 C   0  0  0  0  0  0  0  0  0  0  0  0
   17.7700   16.1110    6.2130 N   0  0  0  0  0  0  0  0  0  0  0  0
   19.0020   15.9840    5.4920 C   0  0  2  0  0  0  0  0  0  0  0  0
   18.4900   15.4160    4.1700 C   0  0  0  0  0  0  0  0  0  0  0  0
   19.2250   15.1820    3.2190 O   0  0  0  0  0  0  0  0  0  0  0  0
   17.1420   15.2520    4.2580 N   0  0  0  0  0  0  0  0  0  0  0  0
   20.0250   15.0850    6.1610 C   0  0  0  0  0  0  0  0  0  0  0  0
   21.3300   15.4130    5.4510 C   0  0  0  0  0  0  0  0  0  0  0  0
   21.1880   16.8340    4.9850 N   0  0  0  0  0  4  0  0  0  0  0  0
   19.7650   17.2750    5.2260 C   0  0  0  0  0  0  0  0  0  0  0  0
   16.2870   14.7600    3.1980 C   0  0  0  0  0  0  0  0  0  0  0  0
   15.9140   13.3330    3.4660 C   0  0  0  0  0  0  0  0  0  0  0  0
   15.1770   12.5350    2.4200 C   0  0  0  0  0  0  0  0  0  0  0  0
   14.4770   12.9310    3.6920 C   0  0  0  0  0  0  0  0  0  0  0  0
   17.6981   16.4884    7.1686 H   0  0  0  0  0  0  0  0  0  0  0  0
   20.0982   15.3092    7.2354 H   0  0  0  0  0  0  0  0  0  0  0  0
   19.7616   14.0195    6.0882 H   0  0  0  0  0  0  0  0  0  0  0  0
   22.1789   15.3189    6.1442 H   0  0  0  0  0  0  0  0  0  0  0  0
   21.5223   14.7264    4.6134 H   0  0  0  0  0  0  0  0  0  0  0  0
   21.8336   17.4391    5.5122 H   0  0  0  0  0  0  0  0  0  0  0  0
   21.4143   16.9017    3.9824 H   0  0  0  0  0  0  0  0  0  0  0  0
   19.3624   17.7885    4.3404 H   0  0  0  0  0  0  0  0  0  0  0  0
   19.6847   17.9864    6.0611 H   0  0  0  0  0  0  0  0  0  0  0  0
   15.3748   15.3730    3.1507 H   0  0  0  0  0  0  0  0  0  0  0  0
   16.8250   14.8206    2.2405 H   0  0  0  0  0  0  0  0  0  0  0  0
   16.8488   13.2104    4.0327 H   0  0  0  0  0  0  0  0  0  0  0  0
   14.8941   13.0064    1.4672 H   0  0  0  0  0  0  0  0  0  0  0  0
   15.3588   11.5848    1.8964 H   0  0  0  0  0  0  0  0  0  0  0  0
   13.6830   13.6919    3.6687 H   0  0  0  0  0  0  0  0  0  0  0  0
   13.9359   12.3903    4.4825 H   0  0  0  0  0  0  0  0  0  0  0  0
  2  1  2  0
  3  2  1  0
  4  3  1  0
  4  5  1  6
  6  5  2  0
  7  5  1  0
  7  2  1  0
  8  4  1  0
  9  8  1  0
 10  9  1  0
 11  4  1  0
 11 10  1  0
 12  7  1  0
 13 12  1  0
 14 13  1  0
 15 14  1  0
 15 13  1  0
  3 16  1  0
  8 17  1  0
  8 18  1  0
  9 19  1  0
  9 20  1  0
 10 21  1  0
 10 22  1  0
 11 23  1  0
 11 24  1  0
 12 25  1  0
 12 26  1  0
 13 27  1  0
 14 28  1  0
 14 29  1  0
 15 30  1  0
 15 31  1  0
M  CHG  1  10   1
M  END
$$$$
=
     RDKit          3D

 31 32  0  0  0  0  0  0  0  0999 V2000
   19.4550   17.3760    3.8460 C   0  0  2  0  0  0  0  0  0  0  0  0
   20.0810   18.3770    4.8280 C   0  0  0  0  0  0  0  0  0  0  0  0
   21.5030   17.8920    4.9930 C   0  0  1  0  0  0  0  0  0  0  0  0
   21.3330   16.3870    5.1100 C   0  0  0  0  0  0  0  0  0  0  0  0
   20.2760   16.0930    4.0300 N   0  0  1  0  0  4  0  0  0  0  0  0
   22.1500   18.1640    3.8170 F   0  0  0  0  0  0  0  0  0  0  0  0
   19.4260   17.8730    2.3610 C   0  0  0  0  0  0  0  0  0  0  0  0
   20.2390   17.0740    1.3980 N   0  0  0  0  0  4  0  0  0  0  0  0
   19.4550   14.8470    4.3320 C   0  0  0  0  0  0  0  0  0  0  0  0
   18.1520   15.1990    4.9620 C   0  0  0  0  0  0  0  0  0  0  0  0
   17.8970   15.6170    6.2530 C   0  0  0  0  0  0  0  0  0  0  0  0
   16.5090   15.8540    6.4760 C   0  0  0  0  0  0  0  0  0  0  0  0
   15.7520   15.6130    5.3530 C   0  0  0  0  0  0  0  0  0  0  0  0
   16.7090   15.1030    4.0340 S   0  0  0  0  0  0  0  0  0  0  0  0
   18.3878   17.2225    4.0639 H   0  0  0  0  0  0  0  0  0  0  0  0
   20.0616   19.3954    4.4128 H   0  0  0  0  0  0  0  0  0  0  0  0
   19.5384   18.4263    5.7836 H   0  0  0  0  0  0  0  0  0  0  0  0
   22.0519   18.3377    5.8356 H   0  0  0  0  0  0  0  0  0  0  0  0
   22.2760   15.8617    4.8984 H   0  0  0  0  0  0  0  0  0  0  0  0
   21.0401   16.0531    6.1163 H   0  0  0  0  0  0  0  0  0  0  0  0
   20.7219   15.8529    3.1331 H   0  0  0  0  0  0  0  0  0  0  0  0
   18.3809   17.8548    2.0183 H   0  0  0  0  0  0  0  0  0  0  0  0
   19.8731   18.8780    2.3711 H   0  0  0  0  0  0  0  0  0  0  0  0
   20.8730   16.4509    1.9182 H   0  0  0  0  0  0  0  0  0  0  0  0
   19.6131   16.5100    0.8055 H   0  0  0  0  0  0  0  0  0  0  0  0
   20.7921   17.7096    0.8055 H   0  0  0  0  0  0  0  0  0  0  0  0
   19.2649   14.3065    3.3930 H   0  0  0  0  0  0  0  0  0  0  0  0
   20.0223   14.2183    5.0340 H   0  0  0  0  0  0  0  0  0  0  0  0
   18.6741   15.7514    7.0199 H   0  0  0  0  0  0  0  0  0  0  0  0
   16.0912   16.1910    7.4361 H   0  0  0  0  0  0  0  0  0  0  0  0
   14.6596   15.7344    5.3098 H   0  0  0  0  0  0  0  0  0  0  0  0
  2  1  1  0
  3  2  1  0
  4  3  1  0
  5  4  1  0
  5  1  1  0
  6  3  1  0
  7  1  1  0
  8  7  1  0
  9  5  1  0
 10  9  1  0
 11 10  2  0
 12 11  1  0
 13 12  2  0
 14 13  1  0
 14 10  1  0
  1 15  1  1
  2 16  1  0
  2 17  1  0
  3 18  1  1
  4 19  1  0
  4 20  1  0
  5 21  1  6
  7 22  1  0
  7 23  1  0
  8 24  1  0
  8 25  1  0
  8 26  1  0
  9 27  1  0
  9 28  1  0
 11 29  1  0
 12 30  1  0
 13 31  1  0
M  CHG  2   5   1   8   1
M  END
$$$$
=
     RDKit          3D

 35 37  0  0  0  0  0  0  0  0999 V2000
   18.7240   14.4420    3.3910 C   0  0  1  0  0  0  0  0  0  0  0  0
   18.4150   12.9660    3.7080 C   0  0  0  0  0  0  0  0  0  0  0  0
   17.6650   12.2520    2.6230 N   0  0  0  0  0  4  0  0  0  0  0  0
   16.3740   12.8380    2.1480 C   0  0  0  0  0  0  0  0  0  0  0  0
   15.6440   13.6330    3.1920 C   0  0  0  0  0  0  0  0  0  0  0  0
   16.1910   14.8490    3.6610 C   0  0  0  0  0  0  0  0  0  0  0  0
   17.5060   15.3570    3.1150 C   0  0  0  0  0  0  0  0  0  0  0  0
   15.5050   15.5830    4.6360 C   0  0  0  0  0  0  0  0  0  0  0  0
   14.2980   15.1150    5.1500 C   0  0  0  0  0  0  0  0  0  0  0  0
   13.7620   13.9130    4.6960 C   0  0  0  0  0  0  0  0  0  0  0  0
   14.4290   13.1730    3.7200 C   0  0  0  0  0  0  0  0  0  0  0  0
   21.2360   16.0760    6.5210 C   0  0  0  0  0  0  0  0  0  0  0  0
   20.3890   15.0070    6.8020 C   0  0  0  0  0  0  0  0  0  0  0  0
   19.5740   14.4770    5.8020 C   0  0  0  0  0  0  0  0  0  0  0  0
   19.5960   15.0110    4.5030 C   0  0  0  0  0  0  0  0  0  0  0  0
   20.4510   16.0920    4.2350 C   0  0  0  0  0  0  0  0  0  0  0  0
   21.2660   16.6190    5.2390 C   0  0  0  0  0  0  0  0  0  0  0  0
   19.2524   14.4335    2.4263 H   0  0  0  0  0  0  0  0  0  0  0  0
   19.3675   12.4411    3.8729 H   0  0  0  0  0  0  0  0  0  0  0  0
   17.7683   12.9607    4.5978 H   0  0  0  0  0  0  0  0  0  0  0  0
   18.2914   12.1934    1.8074 H   0  0  0  0  0  0  0  0  0  0  0  0
   17.3942   11.3547    3.0501 H   0  0  0  0  0  0  0  0  0  0  0  0
   16.5873   13.4997    1.2956 H   0  0  0  0  0  0  0  0  0  0  0  0
   15.7222   11.9946    1.8764 H   0  0  0  0  0  0  0  0  0  0  0  0
   17.4030   15.4693    2.0256 H   0  0  0  0  0  0  0  0  0  0  0  0
   17.7093   16.3056    3.6335 H   0  0  0  0  0  0  0  0  0  0  0  0
   15.9215   16.5345    4.9981 H   0  0  0  0  0  0  0  0  0  0  0  0
   13.7665   15.6971    5.9172 H   0  0  0  0  0  0  0  0  0  0  0  0
   12.8103   13.5461    5.1080 H   0  0  0  0  0  0  0  0  0  0  0  0
   14.0004   12.2249    3.3630 H   0  0  0  0  0  0  0  0  0  0  0  0
   21.8802   16.4908    7.3103 H   0  0  0  0  0  0  0  0  0  0  0  0
   20.3627   14.5795    7.8152 H   0  0  0  0  0  0  0  0  0  0  0  0
   18.9076   13.6328    6.0327 H   0  0  0  0  0  0  0  0  0  0  0  0
   20.4791   16.5276    3.2253 H   0  0  0  0  0  0  0  0  0  0  0  0
   21.9331   17.4649    5.0167 H   0  0  0  0  0  0  0  0  0  0  0  0
  2  1  1  0
  3  2  1  0
  4  3  1  0
  5  4  1  0
  6  5  2  0
  7  6  1  0
  7  1  1  0
  8  6  1  0
  9  8  2  0
 10  9  1  0
 11 10  2  0
 11  5  1  0
 13 12  2  0
 14 13  1  0
 15  1  1  0
 15 14  2  0
 16 15  1  0
 17 16  2  0
 17 12  1  0
  1 18  1  6
  2 19  1  0
  2 20  1  0
  3 21  1  0
  3 22  1  0
  4 23  1  0
  4 24  1  0
  7 25  1  0
  7 26  1  0
  8 27  1  0
  9 28  1  0
 10 29  1  0
 11 30  1  0
 12 31  1  0
 13 32  1  0
 14 33  1  0
 16 34  1  0
 17 35  1  0
M  CHG  1   3   1
M  END
$$$$
=
     RDKit          3D

 39 41  0  0  0  0  0  0  0  0999 V2000
   17.7070   15.5230    4.3730 C   0  0  0  0  0  0  0  0  0  0  0  0
   17.7200   15.9870    5.6930 C   0  0  0  0  0  0  0  0  0  0  0  0
   16.5790   15.8840    6.4840 C   0  0  0  0  0  0  0  0  0  0  0  0
   15.4160   15.3100    5.9660 C   0  0  0  0  0  0  0  0  0  0  0  0
   15.3760   14.8190    4.6530 C   0  0  0  0  0  0  0  0  0  0  0  0
   16.5350   14.9330    3.8670 C   0  0  0  0  0  0  0  0  0  0  0  0
   14.1600   14.1860    4.1190 C   0  0  0  0  0  0  0  0  0  0  0  0
   14.2340   13.0710    3.2680 C   0  0  0  0  0  0  0  0  0  0  0  0
   13.0770   12.4710    2.7650 C   0  0  0  0  0  0  0  0  0  0  0  0
   11.8250   12.9760    3.1080 C   0  0  0  0  0  0  0  0  0  0  0  0
   11.7290   14.0800    3.9500 C   0  0  0  0  0  0  0  0  0  0  0  0
   12.8880   14.6800    4.4510 C   0  0  0  0  0  0  0  0  0  0  0  0
   18.9280   15.6730    3.4970 C   0  0  0  0  0  0  0  0  0  0  0  0
   19.7380   17.7670    1.7360 O   0  0  0  0  0  0  0  0  0  0  0  0
   20.3290   17.6720    2.8010 C   0  0  0  0  0  0  0  0  0  0  0  0
   21.4980   18.3650    3.0390 N   0  0  0  0  0  0  0  0  0  0  0  0
   22.0090   18.5270    4.3870 C   0  0  0  0  0  0  0  0  0  0  0  0
   22.0770   17.2070    5.1810 C   0  0  0  0  0  0  0  0  0  0  0  0
   21.0820   16.1930    4.6870 N   0  0  0  0  0  4  0  0  0  0  0  0
   19.8650   16.7920    3.9790 C   0  0  2  0  0  0  0  0  0  0  0  0
   18.6353   16.4349    6.1073 H   0  0  0  0  0  0  0  0  0  0  0  0
   16.5935   16.2555    7.5193 H   0  0  0  0  0  0  0  0  0  0  0  0
   14.5178   15.2420    6.5974 H   0  0  0  0  0  0  0  0  0  0  0  0
   16.5255   14.5530    2.8348 H   0  0  0  0  0  0  0  0  0  0  0  0
   15.2183   12.6639    2.9933 H   0  0  0  0  0  0  0  0  0  0  0  0
   13.1547   11.5997    2.0980 H   0  0  0  0  0  0  0  0  0  0  0  0
   10.9135   12.5029    2.7139 H   0  0  0  0  0  0  0  0  0  0  0  0
   10.7411   14.4805    4.2213 H   0  0  0  0  0  0  0  0  0  0  0  0
   12.8023   15.5524    5.1155 H   0  0  0  0  0  0  0  0  0  0  0  0
   19.4827   14.7231    3.4995 H   0  0  0  0  0  0  0  0  0  0  0  0
   18.5836   15.9379    2.4865 H   0  0  0  0  0  0  0  0  0  0  0  0
   22.0157   18.7735    2.2477 H   0  0  0  0  0  0  0  0  0  0  0  0
   23.0227   18.9498    4.3267 H   0  0  0  0  0  0  0  0  0  0  0  0
   21.3118   19.1901    4.9201 H   0  0  0  0  0  0  0  0  0  0  0  0
   23.0889   16.7868    5.0831 H   0  0  0  0  0  0  0  0  0  0  0  0
   21.8359   17.4322    6.2304 H   0  0  0  0  0  0  0  0  0  0  0  0
   21.5626   15.5661    4.0260 H   0  0  0  0  0  0  0  0  0  0  0  0
   20.7250   15.7027    5.5195 H   0  0  0  0  0  0  0  0  0  0  0  0
   19.3057   17.4227    4.6857 H   0  0  0  0  0  0  0  0  0  0  0  0
  2  1  2  0
  3  2  1  0
  4  3  2  0
  5  4  1  0
  6  5  2  0
  6  1  1  0
  7  5  1  0
  8  7  2  0
  9  8  1  0
 10  9  2  0
 11 10  1  0
 12 11  2  0
 12  7  1  0
 13  1  1  0
 15 14  2  0
 16 15  1  0
 17 16  1  0
 18 17  1  0
 19 18  1  0
 20 19  1  0
 20 13  1  0
 20 15  1  0
  2 21  1  0
  3 22  1  0
  4 23  1  0
  6 24  1  0
  8 25  1  0
  9 26  1  0
 10 27  1  0
 11 28  1  0
 12 29  1  0
 13 30  1  0
 13 31  1  0
 16 32  1  0
 17 33  1  0
 17 34  1  0
 18 35  1  0
 18 36  1  0
 19 37  1  0
 19 38  1  0
 20 39  1  1
M  CHG  1  19   1
M  END
$$$$
=
     RDKit          3D

 31 32  0  0  0  0  0  0  0  0999 V2000
   18.5950   15.6950    4.5560 C   0  0  2  0  0  0  0  0  0  0  0  0
   17.7190   16.8980    4.9530 C   0  0  0  0  0  0  0  0  0  0  0  0
   17.8200   14.5550    3.8790 C   0  0  0  0  0  0  0  0  0  0  0  0
   18.4340   13.3550    3.4880 C   0  0  0  0  0  0  0  0  0  0  0  0
   17.6600   12.3510    2.9220 C   0  0  0  0  0  0  0  0  0  0  0  0
   16.3320   12.4550    2.7350 N   0  0  0  0  0  0  0  0  0  0  0  0
   15.7390   13.6000    3.1140 C   0  0  0  0  0  0  0  0  0  0  0  0
   16.4280   14.6580    3.6890 C   0  0  0  0  0  0  0  0  0  0  0  0
   20.6920   15.0190    5.7950 N   0  0  0  0  0  0  0  0  0  0  0  0
   19.3380   15.1650    5.8310 C   0  0  0  0  0  0  0  0  0  0  0  0
   18.7030   14.9030    6.8550 O   0  0  0  0  0  0  0  0  0  0  0  0
   19.6540   16.1800    3.5540 N   0  0  0  0  0  4  0  0  0  0  0  0
   19.8780   17.6340    3.4340 C   0  0  0  0  0  0  0  0  0  0  0  0
   20.8840   18.0990    2.4230 C   0  0  0  0  0  0  0  0  0  0  0  0
   21.2260   18.1240    3.8850 C   0  0  0  0  0  0  0  0  0  0  0  0
   17.6678   16.9683    6.0496 H   0  0  0  0  0  0  0  0  0  0  0  0
   18.1578   17.8211    4.5465 H   0  0  0  0  0  0  0  0  0  0  0  0
   16.7057   16.7637    4.5465 H   0  0  0  0  0  0  0  0  0  0  0  0
   19.5156   13.2117    3.6283 H   0  0  0  0  0  0  0  0  0  0  0  0
   18.1590   11.4216    2.6101 H   0  0  0  0  0  0  0  0  0  0  0  0
   14.6546   13.7033    2.9608 H   0  0  0  0  0  0  0  0  0  0  0  0
   15.8922   15.5690    3.9938 H   0  0  0  0  0  0  0  0  0  0  0  0
   21.1948   14.6720    6.6243 H   0  0  0  0  0  0  0  0  0  0  0  0
   21.2129   15.2556    4.9385 H   0  0  0  0  0  0  0  0  0  0  0  0
   20.5512   15.7530    3.8255 H   0  0  0  0  0  0  0  0  0  0  0  0
   19.2862   15.8990    2.6339 H   0  0  0  0  0  0  0  0  0  0  0  0
   18.8309   17.8923    3.6505 H   0  0  0  0  0  0  0  0  0  0  0  0
   21.3707   17.3713    1.7570 H   0  0  0  0  0  0  0  0  0  0  0  0
   20.8843   18.8421    1.6120 H   0  0  0  0  0  0  0  0  0  0  0  0
   21.9623   17.4142    4.2901 H   0  0  0  0  0  0  0  0  0  0  0  0
   21.5797   18.8919    4.5887 H   0  0  0  0  0  0  0  0  0  0  0  0
  2  1  1  0
  3  1  1  0
  4  3  2  0
  5  4  1  0
  6  5  2  0
  7  6  1  0
  8  7  2  0
  8  3  1  0
  1 10  1  1
 10  9  1  0
 11 10  2  0
 12  1  1  0
 13 12  1  0
 14 13  1  0
 15 14  1  0
 15 13  1  0
  2 16  1  0
  2 17  1  0
  2 18  1  0
  4 19  1  0
  5 20  1  0
  7 21  1  0
  8 22  1  0
  9 23  1  0
  9 24  1  0
 12 25  1  0
 12 26  1  0
 13 27  1  0
 14 28  1  0
 14 29  1  0
 15 30  1  0
 15 31  1  0
M  CHG  1  12   1
M  END
$$$$
=
     RDKit          3D

 49 52  0  0  0  0  0  0  0  0999 V2000
   13.3700   13.4030    3.7210 C   0  0  0  0  0  0  0  0  0  0  0  0
   12.6310   14.2050    4.5910 C   0  0  0  0  0  0  0  0  0  0  0  0
   11.2460   14.2880    4.4480 C   0  0  0  0  0  0  0  0  0  0  0  0
   10.6130   13.5530    3.4480 C   0  0  0  0  0  0  0  0  0  0  0  0
   11.4140   12.7320    2.6670 C   0  0  0  0  0  0  0  0  0  0  0  0
   12.7550   12.6690    2.7700 N   0  0  0  0  0  0  0  0  0  0  0  0
   17.2960   16.1120    4.5120 C   0  0  0  0  0  0  0  0  0  0  0  0
   16.1350   16.3520    5.2210 C   0  0  0  0  0  0  0  0  0  0  0  0
   15.1280   15.4180    5.0770 N   0  0  0  0  0  0  0  0  0  0  0  0
   15.4940   14.4810    4.2270 C   0  0  0  0  0  0  0  0  0  0  0  0
   17.1020   14.6580    3.6220 S   0  0  0  0  0  0  0  0  0  0  0  0
   14.7710   13.3970    3.8580 N   0  0  0  0  0  0  0  0  0  0  0  0
   22.0060   19.1430    4.2920 F   0  0  0  0  0  0  0  0  0  0  0  0
   20.8800   18.4190    4.3380 C   0  0  0  0  0  0  0  0  0  0  0  0
   20.0840   18.4630    5.4750 C   0  0  0  0  0  0  0  0  0  0  0  0
   18.9100   17.7060    5.5240 C   0  0  0  0  0  0  0  0  0  0  0  0
   18.5260   16.9060    4.4350 C   0  0  0  0  0  0  0  0  0  0  0  0
   19.3510   16.8760    3.2980 C   0  0  0  0  0  0  0  0  0  0  0  0
   20.5260   17.6330    3.2500 C   0  0  0  0  0  0  0  0  0  0  0  0
    9.1420   13.6870    3.1800 C   0  0  0  0  0  0  0  0  0  0  0  0
    8.3380   12.4440    3.6260 C   0  0  2  0  0  0  0  0  0  0  0  0
    7.1380   12.2630    2.6850 C   0  0  0  0  0  0  0  0  0  0  0  0
    6.3180   11.1600    3.0740 O   0  0  0  0  0  0  0  0  0  0  0  0
    5.3210   11.5100    4.0380 C   0  0  0  0  0  0  0  0  0  0  0  0
    5.7990   11.1840    5.4520 C   0  0  0  0  0  0  0  0  0  0  0  0
    7.2910   11.2500    5.5530 N   0  0  0  0  0  4  0  0  0  0  0  0
    7.9340   12.5240    5.1060 C   0  0  0  0  0  0  0  0  0  0  0  0
   13.1387   14.7698    5.3868 H   0  0  0  0  0  0  0  0  0  0  0  0
   10.6575   14.9295    5.1203 H   0  0  0  0  0  0  0  0  0  0  0  0
   10.9232   12.0934    1.9177 H   0  0  0  0  0  0  0  0  0  0  0  0
   16.0191   17.2370    5.8639 H   0  0  0  0  0  0  0  0  0  0  0  0
   15.2744   12.5190    3.6669 H   0  0  0  0  0  0  0  0  0  0  0  0
   20.3753   19.0892    6.3311 H   0  0  0  0  0  0  0  0  0  0  0  0
   18.2799   17.7370    6.4251 H   0  0  0  0  0  0  0  0  0  0  0  0
   19.0700   16.2511    2.4374 H   0  0  0  0  0  0  0  0  0  0  0  0
   21.1657   17.6057    2.3556 H   0  0  0  0  0  0  0  0  0  0  0  0
    8.7637   14.5647    3.7246 H   0  0  0  0  0  0  0  0  0  0  0  0
    9.0110   13.7947    2.0932 H   0  0  0  0  0  0  0  0  0  0  0  0
    8.9735   11.5493    3.5507 H   0  0  0  0  0  0  0  0  0  0  0  0
    6.5314   13.1805    2.7017 H   0  0  0  0  0  0  0  0  0  0  0  0
    7.5241   12.0613    1.6749 H   0  0  0  0  0  0  0  0  0  0  0  0
    5.1125   12.5877    3.9668 H   0  0  0  0  0  0  0  0  0  0  0  0
    4.4095   10.9304    3.8304 H   0  0  0  0  0  0  0  0  0  0  0  0
    5.3604   11.9085    6.1540 H   0  0  0  0  0  0  0  0  0  0  0  0
    5.4803   10.1602    5.6977 H   0  0  0  0  0  0  0  0  0  0  0  0
    7.5448   11.1008    6.5400 H   0  0  0  0  0  0  0  0  0  0  0  0
    7.6403   10.5272    4.9077 H   0  0  0  0  0  0  0  0  0  0  0  0
    8.8315   12.7075    5.7150 H   0  0  0  0  0  0  0  0  0  0  0  0
    7.2118   13.3445    5.2294 H   0  0  0  0  0  0  0  0  0  0  0  0
  2  1  2  0
  3  2  1  0
  4  3  2  0
  5  4  1  0
  6  5  2  0
  6  1  1  0
  8  7  2  0
  9  8  1  0
 10  9  2  0
 11 10  1  0
 11  7  1  0
 12 10  1  0
 12  1  1  0
 14 13  1  0
 15 14  2  0
 16 15  1  0
 17  7  1  0
 17 16  2  0
 18 17  1  0
 19 18  2  0
 19 14  1  0
 20  4  1  0
 21 20  1  0
 22 21  1  0
 23 22  1  0
 24 23  1  0
 25 24  1  0
 26 25  1  0
 27 21  1  0
 27 26  1  0
  2 28  1  0
  3 29  1  0
  5 30  1  0
  8 31  1  0
 12 32  1  0
 15 33  1  0
 16 34  1  0
 18 35  1  0
 19 36  1  0
 20 37  1  0
 20 38  1  0
 21 39  1  1
 22 40  1  0
 22 41  1  0
 24 42  1  0
 24 43  1  0
 25 44  1  0
 25 45  1  0
 26 46  1  0
 26 47  1  0
 27 48  1  0
 27 49  1  0
M  CHG  1  26   1
M  END
$$$$
=
     RDKit          3D

 23 24  0  0  0  0  0  0  0  0999 V2000
   18.1080   15.5050    4.2920 C   0  0  0  0  0  0  0  0  0  0  0  0
   19.1050   14.8840    3.5790 N   0  0  0  0  0  0  0  0  0  0  0  0
   20.2710   15.3670    3.9850 N   0  0  0  0  0  0  0  0  0  0  0  0
   20.0180   16.2780    4.9350 N   0  0  0  0  0  0  0  0  0  0  0  0
   18.6860   16.4060    5.1670 C   0  0  0  0  0  0  0  0  0  0  0  0
   21.0650   17.0280    5.6220 C   0  0  0  0  0  0  0  0  0  0  0  0
   22.2210   17.4240    4.6960 C   0  0  0  0  0  0  0  0  0  0  0  0
   22.1460   18.7900    5.2510 N   0  0  0  0  0  4  0  0  0  0  0  0
   20.7650   18.5300    5.7040 C   0  0  0  0  0  0  0  0  0  0  0  0
   15.7420   15.7840    5.1580 C   0  0  0  0  0  0  0  0  0  0  0  0
   16.6890   15.2340    4.1230 C   0  0  0  0  0  0  0  0  0  0  0  0
   16.2820   14.5770    3.1670 O   0  0  0  0  0  0  0  0  0  0  0  0
   18.1838   17.0718    5.8843 H   0  0  0  0  0  0  0  0  0  0  0  0
   21.2035   16.3970    6.5123 H   0  0  0  0  0  0  0  0  0  0  0  0
   23.1671   16.9013    4.9002 H   0  0  0  0  0  0  0  0  0  0  0  0
   22.1696   17.2456    3.6118 H   0  0  0  0  0  0  0  0  0  0  0  0
   22.8123   18.9705    6.0154 H   0  0  0  0  0  0  0  0  0  0  0  0
   22.3553   19.6058    4.6581 H   0  0  0  0  0  0  0  0  0  0  0  0
   19.9854   18.8769    5.0098 H   0  0  0  0  0  0  0  0  0  0  0  0
   20.3723   18.9836    6.6260 H   0  0  0  0  0  0  0  0  0  0  0  0
   16.1276   15.5601    6.1636 H   0  0  0  0  0  0  0  0  0  0  0  0
   15.6546   16.8734    5.0330 H   0  0  0  0  0  0  0  0  0  0  0  0
   14.7525   15.3201    5.0330 H   0  0  0  0  0  0  0  0  0  0  0  0
  2  1  1  0
  3  2  2  0
  4  3  1  0
  5  4  1  0
  5  1  2  0
  6  4  1  0
  7  6  1  0
  8  7  1  0
  9  6  1  0
  9  8  1  0
 11 10  1  0
 11  1  1  0
 12 11  2  0
  5 13  1  0
  6 14  1  0
  7 15  1  0
  7 16  1  0
  8 17  1  0
  8 18  1  0
  9 19  1  0
  9 20  1  0
 10 21  1  0
 10 22  1  0
 10 23  1  0
M  CHG  1   8   1
M  END
$$$$
=
     RDKit          3D

 49 51  0  0  0  0  0  0  0  0999 V2000
   29.2360   25.9400   14.5070 C   0  0  0  0  0  0  0  0  0  0  0  0
   29.5460   24.5950   14.2970 C   0  0  0  0  0  0  0  0  0  0  0  0
   29.1120   23.9330   13.1420 C   0  0  0  0  0  0  0  0  0  0  0  0
   28.3650   24.6070   12.1670 C   0  0  0  0  0  0  0  0  0  0  0  0
   28.0350   25.9540   12.3940 C   0  0  0  0  0  0  0  0  0  0  0  0
   28.4520   26.6300   13.5620 C   0  0  0  0  0  0  0  0  0  0  0  0
   29.7890   25.9530   16.8320 C   0  0  0  0  0  0  0  0  0  0  0  0
   29.6200   26.6680   15.6050 O   0  0  0  0  0  0  0  0  0  0  0  0
   28.1130   28.0960   13.7460 C   0  0  0  0  0  0  0  0  0  0  0  0
   26.8810   28.3630   14.5730 N   0  0  0  0  0  4  0  0  0  0  0  0
   26.1880   27.0760   15.0090 C   0  0  0  0  0  0  0  0  0  0  0  0
   25.2440   27.3660   16.1770 C   0  0  0  0  0  0  0  0  0  0  0  0
   25.9290   27.8590   17.3340 O   0  0  0  0  0  0  0  0  0  0  0  0
   27.1290   28.5890   17.0590 C   0  0  0  0  0  0  0  0  0  0  0  0
   27.0820   29.3390   15.7260 C   0  0  0  0  0  0  0  0  0  0  0  0
   27.9100   23.8920   10.9170 C   0  0  0  0  0  0  0  0  0  0  0  0
   26.4840   24.1370   10.5470 N   0  0  0  0  0  4  0  0  0  0  0  0
   25.4360   23.5300   11.4260 C   0  0  0  0  0  0  0  0  0  0  0  0
   24.5470   24.5490   12.0540 C   0  0  0  0  0  0  0  0  0  0  0  0
   24.2980   25.8450   11.6430 C   0  0  0  0  0  0  0  0  0  0  0  0
   23.3900   26.5210   12.5100 C   0  0  0  0  0  0  0  0  0  0  0  0
   22.9840   25.7260   13.5580 C   0  0  0  0  0  0  0  0  0  0  0  0
   23.6940   24.1750   13.4940 S   0  0  0  0  0  0  0  0  0  0  0  0
   30.1376   24.0495   15.0470 H   0  0  0  0  0  0  0  0  0  0  0  0
   29.3605   22.8711   12.9984 H   0  0  0  0  0  0  0  0  0  0  0  0
   27.4381   26.4945   11.6446 H   0  0  0  0  0  0  0  0  0  0  0  0
   29.6277   26.6356   17.6794 H   0  0  0  0  0  0  0  0  0  0  0  0
   29.0606   25.1301   16.8802 H   0  0  0  0  0  0  0  0  0  0  0  0
   30.8087   25.5433   16.8802 H   0  0  0  0  0  0  0  0  0  0  0  0
   28.9670   28.5853   14.2371 H   0  0  0  0  0  0  0  0  0  0  0  0
   27.9028   28.4927   12.7418 H   0  0  0  0  0  0  0  0  0  0  0  0
   26.2407   28.8553   13.9338 H   0  0  0  0  0  0  0  0  0  0  0  0
   25.6112   26.6681   14.1658 H   0  0  0  0  0  0  0  0  0  0  0  0
   26.9460   26.3452   15.3274 H   0  0  0  0  0  0  0  0  0  0  0  0
   24.5088   28.1188   15.8563 H   0  0  0  0  0  0  0  0  0  0  0  0
   24.7613   26.4179   16.4564 H   0  0  0  0  0  0  0  0  0  0  0  0
   27.2876   29.3191   17.8663 H   0  0  0  0  0  0  0  0  0  0  0  0
   27.9501   27.8597   16.9968 H   0  0  0  0  0  0  0  0  0  0  0  0
   28.0285   29.8805   15.5814 H   0  0  0  0  0  0  0  0  0  0  0  0
   26.2401   30.0467   15.7447 H   0  0  0  0  0  0  0  0  0  0  0  0
   28.5436   24.2242   10.0814 H   0  0  0  0  0  0  0  0  0  0  0  0
   27.9989   22.8151   11.1230 H   0  0  0  0  0  0  0  0  0  0  0  0
   26.3349   25.1562   10.5453 H   0  0  0  0  0  0  0  0  0  0  0  0
   26.3637   23.6769    9.6334 H   0  0  0  0  0  0  0  0  0  0  0  0
   24.8186   22.8511   10.8194 H   0  0  0  0  0  0  0  0  0  0  0  0
   25.9528   22.9965   12.2373 H   0  0  0  0  0  0  0  0  0  0  0  0
   24.7485   26.3023   10.7498 H   0  0  0  0  0  0  0  0  0  0  0  0
   23.0531   27.5572   12.3590 H   0  0  0  0  0  0  0  0  0  0  0  0
   22.2854   26.0514   14.3429 H   0  0  0  0  0  0  0  0  0  0  0  0
  2  1  2  0
  3  2  1  0
  4  3  2  0
  5  4  1  0
  6  5  2  0
  6  1  1  0
  8  1  1  0
  8  7  1  0
  9  6  1  0
 10  9  1  0
 11 10  1  0
 12 11  1  0
 13 12  1  0
 14 13  1  0
 15 10  1  0
 15 14  1  0
 16  4  1  0
 17 16  1  0
 18 17  1  0
 19 18  1  0
 20 19  2  0
 21 20  1  0
 22 21  2  0
 23 22  1  0
 23 19  1  0
  2 24  1  0
  3 25  1  0
  5 26  1  0
  7 27  1  0
  7 28  1  0
  7 29  1  0
  9 30  1  0
  9 31  1  0
 10 32  1  0
 11 33  1  0
 11 34  1  0
 12 35  1  0
 12 36  1  0
 14 37  1  0
 14 38  1  0
 15 39  1  0
 15 40  1  0
 16 41  1  0
 16 42  1  0
 17 43  1  0
 17 44  1  0
 18 45  1  0
 18 46  1  0
 20 47  1  0
 21 48  1  0
 22 49  1  0
M  CHG  2  10   1  17   1
M  END
$$$$
=
     RDKit          3D

 33 33  0  0  0  0  0  0  0  0999 V2000
   18.8930   15.9740    5.3280 N   0  0  1  0  0  4  0  0  0  0  0  0
   19.3240   14.9310    6.3860 C   0  0  0  0  0  0  0  0  0  0  0  0
   20.8150   15.0430    6.7920 C   0  0  0  0  0  0  0  0  0  0  0  0
   21.6870   15.3040    5.5950 N   0  0  0  0  0  4  0  0  0  0  0  0
   21.3730   16.5770    4.8470 C   0  0  0  0  0  0  0  0  0  0  0  0
   19.9340   17.1020    5.1280 C   0  0  1  0  0  0  0  0  0  0  0  0
   19.4800   18.1300    4.1010 C   0  0  0  0  0  0  0  0  0  0  0  0
   18.1830   15.4000    4.0810 C   0  0  1  0  0  0  0  0  0  0  0  0
   18.7140   14.0150    3.7280 C   0  0  0  0  0  0  0  0  0  0  0  0
   16.1310   16.3930    5.2780 C   0  0  0  0  0  0  0  0  0  0  0  0
   16.6510   15.3840    4.2630 C   0  0  0  0  0  0  0  0  0  0  0  0
   18.0979   16.4864    5.7357 H   0  0  0  0  0  0  0  0  0  0  0  0
   18.7066   15.0718    7.2855 H   0  0  0  0  0  0  0  0  0  0  0  0
   19.1848   13.9369    5.9361 H   0  0  0  0  0  0  0  0  0  0  0  0
   20.9308   15.8705    7.5074 H   0  0  0  0  0  0  0  0  0  0  0  0
   21.1244   14.0905    7.2469 H   0  0  0  0  0  0  0  0  0  0  0  0
   22.6645   15.3539    5.9157 H   0  0  0  0  0  0  0  0  0  0  0  0
   21.5136   14.5312    4.9366 H   0  0  0  0  0  0  0  0  0  0  0  0
   22.0946   17.3499    5.1500 H   0  0  0  0  0  0  0  0  0  0  0  0
   21.4408   16.3550    3.7718 H   0  0  0  0  0  0  0  0  0  0  0  0
   19.9963   17.6224    6.0951 H   0  0  0  0  0  0  0  0  0  0  0  0
   19.0880   19.0176    4.6192 H   0  0  0  0  0  0  0  0  0  0  0  0
   20.3336   18.4204    3.4709 H   0  0  0  0  0  0  0  0  0  0  0  0
   18.6904   17.6948    3.4709 H   0  0  0  0  0  0  0  0  0  0  0  0
   18.4089   16.0671    3.2360 H   0  0  0  0  0  0  0  0  0  0  0  0
   18.9276   13.4577    4.6520 H   0  0  0  0  0  0  0  0  0  0  0  0
   17.9601   13.4725    3.1387 H   0  0  0  0  0  0  0  0  0  0  0  0
   19.6373   14.1156    3.1387 H   0  0  0  0  0  0  0  0  0  0  0  0
   16.3225   16.0215    6.2955 H   0  0  0  0  0  0  0  0  0  0  0  0
   16.6458   17.3547    5.1359 H   0  0  0  0  0  0  0  0  0  0  0  0
   15.0491   16.5318    5.1359 H   0  0  0  0  0  0  0  0  0  0  0  0
   16.3537   14.3779    4.5937 H   0  0  0  0  0  0  0  0  0  0  0  0
   16.2150   15.6604    3.2916 H   0  0  0  0  0  0  0  0  0  0  0  0
  2  1  1  0
  3  2  1  0
  4  3  1  0
  5  4  1  0
  6  1  1  0
  6  5  1  0
  7  6  1  0
  8  1  1  0
  9  8  1  0
 11 10  1  0
 11  8  1  0
  1 12  1  1
  2 13  1  0
  2 14  1  0
  3 15  1  0
  3 16  1  0
  4 17  1  0
  4 18  1  0
  5 19  1  0
  5 20  1  0
  6 21  1  1
  7 22  1  0
  7 23  1  0
  7 24  1  0
  8 25  1  6
  9 26  1  0
  9 27  1  0
  9 28  1  0
 10 29  1  0
 10 30  1  0
 10 31  1  0
 11 32  1  0
 11 33  1  0
M  CHG  2   1   1   4   1
M  END
$$$$
=
     RDKit          3D

 43 44  0  0  0  0  0  0  0  0999 V2000
   19.9840   15.7310    5.2710 C   0  0  0  0  0  0  0  0  0  0  0  0
   19.0620   15.1910    6.3740 C   0  0  0  0  0  0  0  0  0  0  0  0
   17.6280   15.6990    6.2030 C   0  0  0  0  0  0  0  0  0  0  0  0
   17.1130   15.3260    4.8370 N   0  0  0  0  0  4  0  0  0  0  0  0
   17.9850   15.8320    3.7110 C   0  0  0  0  0  0  0  0  0  0  0  0
   19.4200   15.3280    3.9000 C   0  0  0  0  0  0  0  0  0  0  0  0
   21.4730   15.3750    5.4620 C   0  0  0  0  0  0  0  0  0  0  0  0
   22.2550   16.4380    6.1630 N   0  0  0  0  0  4  0  0  0  0  0  0
   22.6610   18.4360    4.7350 C   0  0  0  0  0  0  0  0  0  0  0  0
   21.8200   17.8520    5.8510 C   0  0  0  0  0  0  0  0  0  0  0  0
   15.6570   15.7750    4.6700 C   0  0  0  0  0  0  0  0  0  0  0  0
   14.7730   14.6810    4.1400 C   0  0  0  0  0  0  0  0  0  0  0  0
   15.3180   13.6260    3.3910 C   0  0  0  0  0  0  0  0  0  0  0  0
   14.4910   12.6290    2.8730 C   0  0  0  0  0  0  0  0  0  0  0  0
   13.1170   12.6720    3.0980 C   0  0  0  0  0  0  0  0  0  0  0  0
   12.5670   13.7090    3.8460 C   0  0  0  0  0  0  0  0  0  0  0  0
   13.3890   14.7100    4.3680 C   0  0  0  0  0  0  0  0  0  0  0  0
   19.9871   16.8290    5.3365 H   0  0  0  0  0  0  0  0  0  0  0  0
   19.0595   14.0918    6.3318 H   0  0  0  0  0  0  0  0  0  0  0  0
   19.4405   15.5440    7.3446 H   0  0  0  0  0  0  0  0  0  0  0  0
   16.9857   15.2447    6.9718 H   0  0  0  0  0  0  0  0  0  0  0  0
   17.6159   16.7938    6.3089 H   0  0  0  0  0  0  0  0  0  0  0  0
   17.1496   14.2985    4.7752 H   0  0  0  0  0  0  0  0  0  0  0  0
   17.5922   15.4647    2.7514 H   0  0  0  0  0  0  0  0  0  0  0  0
   17.9825   16.9320    3.7154 H   0  0  0  0  0  0  0  0  0  0  0  0
   19.4267   14.2310    3.8195 H   0  0  0  0  0  0  0  0  0  0  0  0
   20.0501   15.7825    3.1212 H   0  0  0  0  0  0  0  0  0  0  0  0
   21.5366   14.4493    6.0527 H   0  0  0  0  0  0  0  0  0  0  0  0
   21.9095   15.2607    4.4588 H   0  0  0  0  0  0  0  0  0  0  0  0
   22.1600   16.2897    7.1778 H   0  0  0  0  0  0  0  0  0  0  0  0
   23.2259   16.3522    5.8300 H   0  0  0  0  0  0  0  0  0  0  0  0
   23.4923   19.0133    5.1659 H   0  0  0  0  0  0  0  0  0  0  0  0
   23.0630   17.6217    4.1143 H   0  0  0  0  0  0  0  0  0  0  0  0
   22.0385   19.0972    4.1143 H   0  0  0  0  0  0  0  0  0  0  0  0
   21.9345   18.4723    6.7522 H   0  0  0  0  0  0  0  0  0  0  0  0
   20.7679   17.8361    5.5303 H   0  0  0  0  0  0  0  0  0  0  0  0
   15.2724   16.0955    5.6495 H   0  0  0  0  0  0  0  0  0  0  0  0
   15.6433   16.5980    3.9403 H   0  0  0  0  0  0  0  0  0  0  0  0
   16.4025   13.5853    3.2117 H   0  0  0  0  0  0  0  0  0  0  0  0
   14.9251   11.8067    2.2853 H   0  0  0  0  0  0  0  0  0  0  0  0
   12.4669   11.8868    2.6847 H   0  0  0  0  0  0  0  0  0  0  0  0
   11.4823   13.7401    4.0264 H   0  0  0  0  0  0  0  0  0  0  0  0
   12.9491   15.5254    4.9610 H   0  0  0  0  0  0  0  0  0  0  0  0
  2  1  1  0
  3  2  1  0
  4  3  1  0
  5  4  1  0
  6  5  1  0
  6  1  1  0
  7  1  1  0
  8  7  1  0
 10  9  1  0
 10  8  1  0
 11  4  1  0
 12 11  1  0
 13 12  2  0
 14 13  1  0
 15 14  2  0
 16 15  1  0
 17 16  2  0
 17 12  1  0
  1 18  1  0
  2 19  1  0
  2 20  1  0
  3 21  1  0
  3 22  1  0
  4 23  1  0
  5 24  1  0
  5 25  1  0
  6 26  1  0
  6 27  1  0
  7 28  1  0
  7 29  1  0
  8 30  1  0
  8 31  1  0
  9 32  1  0
  9 33  1  0
  9 34  1  0
 10 35  1  0
 10 36  1  0
 11 37  1  0
 11 38  1  0
 13 39  1  0
 14 40  1  0
 15 41  1  0
 16 42  1  0
 17 43  1  0
M  CHG  2   4   1   8   1
M  END
$$$$
=
     RDKit          3D

 27 28  0  0  0  0  0  0  0  0999 V2000
   20.3150   16.5900    5.0020 C   0  0  2  0  0  0  0  0  0  0  0  0
   20.9930   16.4040    6.3780 C   0  0  0  0  0  0  0  0  0  0  0  0
   22.4080   16.6390    6.2880 O   0  0  0  0  0  0  0  0  0  0  0  0
   22.7010   17.9750    5.8590 C   0  0  0  0  0  0  0  0  0  0  0  0
   22.1190   18.2370    4.4670 C   0  0  0  0  0  0  0  0  0  0  0  0
   20.6430   17.9680    4.4830 N   0  0  0  0  0  4  0  0  0  0  0  0
   18.7600   14.2070    3.8290 C   0  0  0  0  0  0  0  0  0  0  0  0
   18.1680   15.3420    4.5110 N   0  0  0  0  0  0  0  0  0  0  0  0
   16.8210   15.4830    4.7140 C   0  0  0  0  0  0  0  0  0  0  0  0
   16.6080   16.6360    5.4300 C   0  0  0  0  0  0  0  0  0  0  0  0
   17.8710   17.2220    5.6620 C   0  0  0  0  0  0  0  0  0  0  0  0
   18.8350   16.4210    5.0640 C   0  0  0  0  0  0  0  0  0  0  0  0
   20.7007   15.8109    4.3280 H   0  0  0  0  0  0  0  0  0  0  0  0
   20.5547   17.1143    7.0945 H   0  0  0  0  0  0  0  0  0  0  0  0
   20.8290   15.3694    6.7138 H   0  0  0  0  0  0  0  0  0  0  0  0
   22.2631   18.6877    6.5733 H   0  0  0  0  0  0  0  0  0  0  0  0
   23.7929   18.1006    5.8149 H   0  0  0  0  0  0  0  0  0  0  0  0
   22.2975   19.2855    4.1864 H   0  0  0  0  0  0  0  0  0  0  0  0
   22.6045   17.5738    3.7359 H   0  0  0  0  0  0  0  0  0  0  0  0
   20.2806   18.0547    3.5228 H   0  0  0  0  0  0  0  0  0  0  0  0
   20.2057   18.6538    5.1149 H   0  0  0  0  0  0  0  0  0  0  0  0
   19.1352   13.4877    4.5719 H   0  0  0  0  0  0  0  0  0  0  0  0
   18.0006   13.7209    3.1989 H   0  0  0  0  0  0  0  0  0  0  0  0
   19.5932   14.5516    3.1989 H   0  0  0  0  0  0  0  0  0  0  0  0
   16.0417   14.7904    4.3632 H   0  0  0  0  0  0  0  0  0  0  0  0
   15.6352   17.0290    5.7606 H   0  0  0  0  0  0  0  0  0  0  0  0
   18.0590   18.1514    6.2195 H   0  0  0  0  0  0  0  0  0  0  0  0
  2  1  1  0
  3  2  1  0
  4  3  1  0
  5  4  1  0
  6  1  1  0
  6  5  1  0
  8  7  1  0
  9  8  1  0
 10  9  2  0
 11 10  1  0
 12  8  1  0
 12  1  1  0
 12 11  2  0
  1 13  1  6
  2 14  1  0
  2 15  1  0
  4 16  1  0
  4 17  1  0
  5 18  1  0
  5 19  1  0
  6 20  1  0
  6 21  1  0
  7 22  1  0
  7 23  1  0
  7 24  1  0
  9 25  1  0
 10 26  1  0
 11 27  1  0
M  CHG  1   6   1
M  END
$$$$
=
     RDKit          3D

 41 41  0  0  0  0  0  0  0  0999 V2000
   15.0570   14.5280    3.9400 C   0  0  0  0  0  0  0  0  0  0  0  0
   15.3640   13.4760    3.0770 C   0  0  0  0  0  0  0  0  0  0  0  0
   14.3740   12.5820    2.6520 C   0  0  0  0  0  0  0  0  0  0  0  0
   13.0370   12.7380    3.0390 C   0  0  0  0  0  0  0  0  0  0  0  0
   12.7510   13.7810    3.9400 C   0  0  0  0  0  0  0  0  0  0  0  0
   13.7440   14.6840    4.3730 C   0  0  0  0  0  0  0  0  0  0  0  0
   11.3930   13.9840    4.4490 N   0  0  0  0  0  4  0  0  0  0  0  0
   11.1540   13.6630    5.6220 O   0  0  0  0  0  0  0  0  0  0  0  0
   10.5520   14.4340    3.6540 O   0  0  0  0  0  1  0  0  0  0  0  0
   12.1320   11.7210    2.7010 N   0  0  0  0  0  0  0  0  0  0  0  0
   16.1180   15.3180    4.2870 O   0  0  0  0  0  0  0  0  0  0  0  0
   15.8530   16.4250    5.1440 C   0  0  0  0  0  0  0  0  0  0  0  0
   16.9270   16.4240    6.2320 C   0  0  0  0  0  0  0  0  0  0  0  0
   18.2860   16.7960    5.6560 C   0  0  0  0  0  0  0  0  0  0  0  0
   18.9360   15.6990    4.8260 N   0  0  0  0  0  4  0  0  0  0  0  0
   19.4860   17.6080    3.3170 C   0  0  0  0  0  0  0  0  0  0  0  0
   19.7080   16.1320    3.5940 C   0  0  0  0  0  0  0  0  0  0  0  0
   19.6440   14.6250    5.6340 C   0  0  0  0  0  0  0  0  0  0  0  0
   20.6900   15.1710    6.5830 C   0  0  0  0  0  0  0  0  0  0  0  0
   16.3983   13.3470    2.7255 H   0  0  0  0  0  0  0  0  0  0  0  0
   14.6518   11.7400    2.0010 H   0  0  0  0  0  0  0  0  0  0  0  0
   13.4812   15.5093    5.0511 H   0  0  0  0  0  0  0  0  0  0  0  0
   11.1411   11.8031    2.9699 H   0  0  0  0  0  0  0  0  0  0  0  0
   12.4583   10.8921    2.1839 H   0  0  0  0  0  0  0  0  0  0  0  0
   15.8976   17.3634    4.5717 H   0  0  0  0  0  0  0  0  0  0  0  0
   14.8494   16.3435    5.5869 H   0  0  0  0  0  0  0  0  0  0  0  0
   16.6533   17.1535    7.0085 H   0  0  0  0  0  0  0  0  0  0  0  0
   16.9921   15.4127    6.6598 H   0  0  0  0  0  0  0  0  0  0  0  0
   18.1583   17.6819    5.0165 H   0  0  0  0  0  0  0  0  0  0  0  0
   18.9516   16.9791    6.5124 H   0  0  0  0  0  0  0  0  0  0  0  0
   18.1042   15.2443    4.4231 H   0  0  0  0  0  0  0  0  0  0  0  0
   19.4042   18.1516    4.2698 H   0  0  0  0  0  0  0  0  0  0  0  0
   20.3346   18.0045    2.7403 H   0  0  0  0  0  0  0  0  0  0  0  0
   18.5583   17.7374    2.7403 H   0  0  0  0  0  0  0  0  0  0  0  0
   20.7808   15.9520    3.7576 H   0  0  0  0  0  0  0  0  0  0  0  0
   19.3527   15.5512    2.7300 H   0  0  0  0  0  0  0  0  0  0  0  0
   18.8914   14.0797    6.2224 H   0  0  0  0  0  0  0  0  0  0  0  0
   20.1668   13.9744    4.9175 H   0  0  0  0  0  0  0  0  0  0  0  0
   20.3671   15.0024    7.6209 H   0  0  0  0  0  0  0  0  0  0  0  0
   21.6470   14.6574    6.4087 H   0  0  0  0  0  0  0  0  0  0  0  0
   20.8158   16.2498    6.4087 H   0  0  0  0  0  0  0  0  0  0  0  0
  2  1  2  0
  3  2  1  0
  4  3  2  0
  5  4  1  0
  6  5  2  0
  6  1  1  0
  7  5  1  0
  8  7  2  0
  9  7  1  0
 10  4  1  0
 11  1  1  0
 12 11  1  0
 13 12  1  0
 14 13  1  0
 15 14  1  0
 17 15  1  0
 17 16  1  0
 18 15  1  0
 19 18  1  0
  2 20  1  0
  3 21  1  0
  6 22  1  0
 10 23  1  0
 10 24  1  0
 12 25  1  0
 12 26  1  0
 13 27  1  0
 13 28  1  0
 14 29  1  0
 14 30  1  0
 15 31  1  0
 16 32  1  0
 16 33  1  0
 16 34  1  0
 17 35  1  0
 17 36  1  0
 18 37  1  0
 18 38  1  0
 19 39  1  0
 19 40  1  0
 19 41  1  0
M  CHG  3   7   1   9  -1  15   1
M  END
$$$$
=
     RDKit          3D

 37 36  0  0  0  0  0  0  0  0999 V2000
   14.8370   12.8790    3.6790 C   0  0  2  0  0  0  0  0  0  0  0  0
   14.0050   12.0370    2.7380 N   0  0  0  0  0  4  0  0  0  0  0  0
   14.0300   14.0350    4.2760 C   0  0  0  0  0  0  0  0  0  0  0  0
   14.4020   14.7340    5.2040 O   0  0  0  0  0  0  0  0  0  0  0  0
   12.8320   14.1530    3.6280 O   0  0  0  0  0  0  0  0  0  0  0  0
   10.4160   13.9710    3.7040 C   0  0  0  0  0  0  0  0  0  0  0  0
   11.6750   14.3230    4.4720 C   0  0  0  0  0  0  0  0  0  0  0  0
   16.0850   13.4270    2.9470 C   0  0  0  0  0  0  0  0  0  0  0  0
   16.7080   14.5970    3.5590 N   0  0  0  0  0  0  0  0  0  0  0  0
   18.0460   14.8330    3.6050 C   0  0  0  0  0  0  0  0  0  0  0  0
   18.8780   13.9750    3.3370 O   0  0  0  0  0  0  0  0  0  0  0  0
   18.2660   16.1010    3.9890 O   0  0  0  0  0  0  0  0  0  0  0  0
   18.4730   16.4430    5.3870 C   0  0  0  0  0  0  0  0  0  0  0  0
   17.1570   16.8570    6.0530 C   0  0  0  0  0  0  0  0  0  0  0  0
   19.4170   17.6540    5.3600 C   0  0  0  0  0  0  0  0  0  0  0  0
   19.1590   15.2970    6.1380 C   0  0  0  0  0  0  0  0  0  0  0  0
   15.1551   12.2298    4.5081 H   0  0  0  0  0  0  0  0  0  0  0  0
   13.3914   11.4160    3.2845 H   0  0  0  0  0  0  0  0  0  0  0  0
   13.4303   12.6519    2.1443 H   0  0  0  0  0  0  0  0  0  0  0  0
   14.6267   11.4696    2.1443 H   0  0  0  0  0  0  0  0  0  0  0  0
    9.6056   13.7444    4.4125 H   0  0  0  0  0  0  0  0  0  0  0  0
   10.1227   14.8216    3.0712 H   0  0  0  0  0  0  0  0  0  0  0  0
   10.6063   13.0916    3.0712 H   0  0  0  0  0  0  0  0  0  0  0  0
   11.6178   15.3698    4.8050 H   0  0  0  0  0  0  0  0  0  0  0  0
   11.7636   13.6582    5.3439 H   0  0  0  0  0  0  0  0  0  0  0  0
   16.8358   12.6239    2.9090 H   0  0  0  0  0  0  0  0  0  0  0  0
   15.7356   13.7537    1.9564 H   0  0  0  0  0  0  0  0  0  0  0  0
   16.0864   15.2969    3.9886 H   0  0  0  0  0  0  0  0  0  0  0  0
   17.2721   16.8208    7.1464 H   0  0  0  0  0  0  0  0  0  0  0  0
   16.8965   17.8805    5.7454 H   0  0  0  0  0  0  0  0  0  0  0  0
   16.3574   16.1670    5.7454 H   0  0  0  0  0  0  0  0  0  0  0  0
   19.6536   17.9575    6.3905 H   0  0  0  0  0  0  0  0  0  0  0  0
   20.3451   17.3838    4.8351 H   0  0  0  0  0  0  0  0  0  0  0  0
   18.9284   18.4881    4.8351 H   0  0  0  0  0  0  0  0  0  0  0  0
   19.0621   15.4589    7.2217 H   0  0  0  0  0  0  0  0  0  0  0  0
   18.6831   14.3434    5.8657 H   0  0  0  0  0  0  0  0  0  0  0  0
   20.2243   15.2660    5.8657 H   0  0  0  0  0  0  0  0  0  0  0  0
  2  1  1  0
  3  1  1  0
  4  3  2  0
  5  3  1  0
  7  6  1  0
  7  5  1  0
  8  1  1  0
  9  8  1  0
 10  9  1  0
 11 10  2  0
 12 10  1  0
 13 12  1  0
 14 13  1  0
 15 13  1  0
 16 13  1  0
  1 17  1  1
  2 18  1  0
  2 19  1  0
  2 20  1  0
  6 21  1  0
  6 22  1  0
  6 23  1  0
  7 24  1  0
  7 25  1  0
  8 26  1  0
  8 27  1  0
  9 28  1  0
 14 29  1  0
 14 30  1  0
 14 31  1  0
 15 32  1  0
 15 33  1  0
 15 34  1  0
 16 35  1  0
 16 36  1  0
 16 37  1  0
M  CHG  1   2   1
M  END
$$$$
=
     RDKit          3D

 44 46  0  0  0  0  0  0  0  0999 V2000
   10.1140   14.1360    3.8080 C   0  0  1  0  0  0  0  0  0  0  0  0
    9.3390   14.0390    5.1720 C   0  0  2  0  0  0  0  0  0  0  0  0
   10.7050   13.6310    5.7710 C   0  0  0  0  0  0  0  0  0  0  0  0
   11.0430   13.2630    6.8700 O   0  0  0  0  0  0  0  0  0  0  0  0
   11.3170   13.7900    4.5750 N   0  0  0  0  0  0  0  0  0  0  0  0
   12.6600   13.7580    4.2010 C   0  0  0  0  0  0  0  0  0  0  0  0
   13.1550   12.6900    3.4440 C   0  0  0  0  0  0  0  0  0  0  0  0
   14.4990   12.6540    3.0650 C   0  0  0  0  0  0  0  0  0  0  0  0
   15.3590   13.6830    3.4400 C   0  0  0  0  0  0  0  0  0  0  0  0
   14.8880   14.7530    4.2050 C   0  0  0  0  0  0  0  0  0  0  0  0
   13.5330   14.7890    4.5700 C   0  0  0  0  0  0  0  0  0  0  0  0
   15.8040   15.8830    4.5770 C   0  0  0  0  0  0  0  0  0  0  0  0
    7.9350   12.6080    0.9300 C   0  0  0  0  0  0  0  0  0  0  0  0
    8.4630   13.4610    1.9130 C   0  0  0  0  0  0  0  0  0  0  0  0
    9.6170   13.1540    2.6580 C   0  0  0  0  0  0  0  0  0  0  0  0
   10.2340   11.9310    2.3440 C   0  0  0  0  0  0  0  0  0  0  0  0
    9.7200   11.0640    1.3680 C   0  0  0  0  0  0  0  0  0  0  0  0
    8.5580   11.3840    0.6610 C   0  0  0  0  0  0  0  0  0  0  0  0
    6.4580   14.4550    0.6600 C   0  0  0  0  0  0  0  0  0  0  0  0
    6.7800   13.0950    0.3750 O   0  0  0  0  0  0  0  0  0  0  0  0
    7.9670   10.5470   -0.2420 O   0  0  0  0  0  0  0  0  0  0  0  0
    8.6680   10.2570   -1.4470 C   0  0  0  0  0  0  0  0  0  0  0  0
    8.3670   12.9140    5.3280 N   0  0  0  0  0  4  0  0  0  0  0  0
   10.1003   15.0242    3.1593 H   0  0  0  0  0  0  0  0  0  0  0  0
    8.7035   14.8744    5.5011 H   0  0  0  0  0  0  0  0  0  0  0  0
   12.4812   11.8734    3.1455 H   0  0  0  0  0  0  0  0  0  0  0  0
   14.8788   11.8110    2.4691 H   0  0  0  0  0  0  0  0  0  0  0  0
   16.4147   13.6533    3.1323 H   0  0  0  0  0  0  0  0  0  0  0  0
   13.1514   15.6393    5.1543 H   0  0  0  0  0  0  0  0  0  0  0  0
   15.8659   15.9593    5.6726 H   0  0  0  0  0  0  0  0  0  0  0  0
   16.8063   15.6932    4.1655 H   0  0  0  0  0  0  0  0  0  0  0  0
   15.4109   16.8243    4.1655 H   0  0  0  0  0  0  0  0  0  0  0  0
    7.9504   14.4141    2.1099 H   0  0  0  0  0  0  0  0  0  0  0  0
   11.1501   11.6440    2.8811 H   0  0  0  0  0  0  0  0  0  0  0  0
   10.2397   10.1179    1.1561 H   0  0  0  0  0  0  0  0  0  0  0  0
    6.4230   14.6030    1.7494 H   0  0  0  0  0  0  0  0  0  0  0  0
    7.2253   15.1124    0.2252 H   0  0  0  0  0  0  0  0  0  0  0  0
    5.4774   14.6985    0.2252 H   0  0  0  0  0  0  0  0  0  0  0  0
    9.6595    9.8468   -1.2048 H   0  0  0  0  0  0  0  0  0  0  0  0
    8.0997    9.5201   -2.0336 H   0  0  0  0  0  0  0  0  0  0  0  0
    8.7864   11.1800   -2.0336 H   0  0  0  0  0  0  0  0  0  0  0  0
    8.2100   12.7323    6.3296 H   0  0  0  0  0  0  0  0  0  0  0  0
    7.4743   13.1671    4.8809 H   0  0  0  0  0  0  0  0  0  0  0  0
    8.7470   12.0675    4.8809 H   0  0  0  0  0  0  0  0  0  0  0  0
  2  1  1  0
  3  2  1  0
  4  3  2  0
  5  1  1  0
  5  3  1  0
  6  5  1  0
  7  6  2  0
  8  7  1  0
  9  8  2  0
 10  9  1  0
 11 10  2  0
 11  6  1  0
 12 10  1  0
 14 13  2  0
 15 14  1  0
 15  1  1  0
 16 15  2  0
 17 16  1  0
 18 17  2  0
 18 13  1  0
 20 19  1  0
 20 13  1  0
 21 18  1  0
 22 21  1  0
 23  2  1  0
  1 24  1  6
  2 25  1  1
  7 26  1  0
  8 27  1  0
  9 28  1  0
 11 29  1  0
 12 30  1  0
 12 31  1  0
 12 32  1  0
 14 33  1  0
 16 34  1  0
 17 35  1  0
 19 36  1  0
 19 37  1  0
 19 38  1  0
 22 39  1  0
 22 40  1  0
 22 41  1  0
 23 42  1  0
 23 43  1  0
 23 44  1  0
M  CHG  1  23   1
M  END
$$$$
=
     RDKit          3D

 35 36  0  0  0  0  0  0  0  0999 V2000
   18.1840   14.4940    4.3130 C   0  0  2  0  0  0  0  0  0  0  0  0
   18.2180   15.5180    6.4690 O   0  0  0  0  0  0  0  0  0  0  0  0
   18.8960   15.0850    5.5370 C   0  0  0  0  0  0  0  0  0  0  0  0
   20.2660   15.0970    5.5020 N   0  0  0  0  0  0  0  0  0  0  0  0
   21.0280   15.8470    6.4850 C   0  0  0  0  0  0  0  0  0  0  0  0
   21.6870   16.9820    5.7900 C   0  0  0  0  0  0  0  0  0  0  0  0
   21.3520   17.7420    4.6900 C   0  0  0  0  0  0  0  0  0  0  0  0
   22.3890   18.6920    4.5290 C   0  0  0  0  0  0  0  0  0  0  0  0
   23.2910   18.4530    5.5390 C   0  0  0  0  0  0  0  0  0  0  0  0
   22.8810   17.4100    6.3060 O   0  0  0  0  0  0  0  0  0  0  0  0
   19.1860   14.3660    3.1890 N   0  0  0  0  0  4  0  0  0  0  0  0
   17.0130   15.3850    3.8750 C   0  0  0  0  0  0  0  0  0  0  0  0
   15.7200   14.6160    3.7480 C   0  0  0  0  0  0  0  0  0  0  0  0
   15.6970   13.3750    3.0950 C   0  0  0  0  0  0  0  0  0  0  0  0
   14.5140   12.6400    3.0190 C   0  0  0  0  0  0  0  0  0  0  0  0
   13.3440   13.1400    3.5880 C   0  0  0  0  0  0  0  0  0  0  0  0
   13.3520   14.3800    4.2230 C   0  0  0  0  0  0  0  0  0  0  0  0
   14.5330   15.1180    4.3000 C   0  0  0  0  0  0  0  0  0  0  0  0
   17.7754   13.5062    4.5725 H   0  0  0  0  0  0  0  0  0  0  0  0
   20.7611   14.5679    4.7700 H   0  0  0  0  0  0  0  0  0  0  0  0
   20.3546   16.2287    7.2666 H   0  0  0  0  0  0  0  0  0  0  0  0
   21.7818   15.2000    6.9573 H   0  0  0  0  0  0  0  0  0  0  0  0
   20.4560   17.6320    4.0615 H   0  0  0  0  0  0  0  0  0  0  0  0
   22.4592   19.4667    3.7513 H   0  0  0  0  0  0  0  0  0  0  0  0
   24.2153   19.0264    5.7028 H   0  0  0  0  0  0  0  0  0  0  0  0
   20.1301   14.2454    3.5828 H   0  0  0  0  0  0  0  0  0  0  0  0
   18.9489   13.5485    2.6091 H   0  0  0  0  0  0  0  0  0  0  0  0
   19.1620   15.2169    2.6091 H   0  0  0  0  0  0  0  0  0  0  0  0
   16.8779   16.1824    4.6206 H   0  0  0  0  0  0  0  0  0  0  0  0
   17.2570   15.7962    2.8844 H   0  0  0  0  0  0  0  0  0  0  0  0
   16.6170   12.9791    2.6402 H   0  0  0  0  0  0  0  0  0  0  0  0
   14.5044   11.6651    2.5097 H   0  0  0  0  0  0  0  0  0  0  0  0
   12.4138   12.5552    3.5357 H   0  0  0  0  0  0  0  0  0  0  0  0
   12.4260   14.7774    4.6641 H   0  0  0  0  0  0  0  0  0  0  0  0
   14.5331   16.0995    4.7966 H   0  0  0  0  0  0  0  0  0  0  0  0
  3  1  1  0
  3  2  2  0
  4  3  1  0
  5  4  1  0
  6  5  1  0
  7  6  2  0
  8  7  1  0
  9  8  2  0
 10  6  1  0
 10  9  1  0
 11  1  1  0
 12  1  1  0
 13 12  1  0
 14 13  2  0
 15 14  1  0
 16 15  2  0
 17 16  1  0
 18 17  2  0
 18 13  1  0
  1 19  1  1
  4 20  1  0
  5 21  1  0
  5 22  1  0
  7 23  1  0
  8 24  1  0
  9 25  1  0
 11 26  1  0
 11 27  1  0
 11 28  1  0
 12 29  1  0
 12 30  1  0
 14 31  1  0
 15 32  1  0
 16 33  1  0
 17 34  1  0
 18 35  1  0
M  CHG  1  11   1
M  END
$$$$
=
     RDKit          3D

 29 30  0  0  0  0  0  0  0  0999 V2000
   16.1810   15.3630    4.5380 C   0  0  0  0  0  0  0  0  0  0  0  0
   16.3910   16.2360    5.6120 C   0  0  0  0  0  0  0  0  0  0  0  0
   17.6730   16.7320    5.8760 C   0  0  0  0  0  0  0  0  0  0  0  0
   18.7720   16.3700    5.0770 C   0  0  0  0  0  0  0  0  0  0  0  0
   18.5440   15.4940    4.0040 C   0  0  0  0  0  0  0  0  0  0  0  0
   17.2650   14.9950    3.7360 C   0  0  0  0  0  0  0  0  0  0  0  0
   20.1170   16.9040    5.3550 C   0  0  0  0  0  0  0  0  0  0  0  0
   20.4950   18.1540    4.8390 C   0  0  0  0  0  0  0  0  0  0  0  0
   21.7650   18.6650    5.0870 C   0  0  0  0  0  0  0  0  0  0  0  0
   22.6300   17.9060    5.8500 C   0  0  0  0  0  0  0  0  0  0  0  0
   22.3120   16.7030    6.3720 N   0  0  0  0  0  0  0  0  0  0  0  0
   21.0750   16.2230    6.1270 C   0  0  0  0  0  0  0  0  0  0  0  0
   20.8250   14.9660    6.6820 N   0  0  0  0  0  0  0  0  0  0  0  0
   14.8400   14.8030    4.2120 C   0  0  0  0  0  0  0  0  0  0  0  0
   13.7990   15.4290    4.3380 O   0  0  0  0  0  0  0  0  0  0  0  0
   13.6950   12.8630    3.6010 C   0  0  0  0  0  0  0  0  0  0  0  0
   14.9490   13.5280    3.7640 O   0  0  0  0  0  0  0  0  0  0  0  0
   15.5459   16.5331    6.2504 H   0  0  0  0  0  0  0  0  0  0  0  0
   17.8234   17.4170    6.7234 H   0  0  0  0  0  0  0  0  0  0  0  0
   19.3860   15.1947    3.3626 H   0  0  0  0  0  0  0  0  0  0  0  0
   17.1115   14.3094    2.8896 H   0  0  0  0  0  0  0  0  0  0  0  0
   19.7818   18.7334    4.2343 H   0  0  0  0  0  0  0  0  0  0  0  0
   22.0705   19.6433    4.6876 H   0  0  0  0  0  0  0  0  0  0  0  0
   23.6366   18.3051    6.0435 H   0  0  0  0  0  0  0  0  0  0  0  0
   21.5509   14.4968    7.2423 H   0  0  0  0  0  0  0  0  0  0  0  0
   19.9148   14.5082    6.5310 H   0  0  0  0  0  0  0  0  0  0  0  0
   13.2687   12.6369    4.5895 H   0  0  0  0  0  0  0  0  0  0  0  0
   13.0047   13.5135    3.0440 H   0  0  0  0  0  0  0  0  0  0  0  0
   13.8462   11.9266    3.0440 H   0  0  0  0  0  0  0  0  0  0  0  0
  2  1  2  0
  3  2  1  0
  4  3  2  0
  5  4  1  0
  6  1  1  0
  6  5  2  0
  7  4  1  0
  8  7  2  0
  9  8  1  0
 10  9  2  0
 11 10  1  0
 12  7  1  0
 12 11  2  0
 13 12  1  0
 14  1  1  0
 15 14  2  0
 17 16  1  0
 17 14  1  0
  2 18  1  0
  3 19  1  0
  5 20  1  0
  6 21  1  0
  8 22  1  0
  9 23  1  0
 10 24  1  0
 13 25  1  0
 13 26  1  0
 16 27  1  0
 16 28  1  0
 16 29  1  0
M  END
$$$$
=
     RDKit          3D

 36 38  0  0  0  0  0  0  0  0999 V2000
   18.5680   16.4770    4.5940 C   0  0  0  0  0  0  0  0  0  0  0  0
   17.7270   17.0740    5.5360 C   0  0  0  0  0  0  0  0  0  0  0  0
   16.4170   16.6150    5.6980 C   0  0  0  0  0  0  0  0  0  0  0  0
   15.9210   15.5670    4.9370 C   0  0  0  0  0  0  0  0  0  0  0  0
   16.7640   14.9590    3.9830 C   0  0  0  0  0  0  0  0  0  0  0  0
   18.0680   15.4230    3.8290 C   0  0  0  0  0  0  0  0  0  0  0  0
   16.3270   13.9390    3.2230 N   0  0  0  0  0  0  0  0  0  0  0  0
   15.0480   13.5230    3.4100 C   0  0  0  0  0  0  0  0  0  0  0  0
   14.2180   14.1270    4.3540 C   0  0  0  0  0  0  0  0  0  0  0  0
   14.6550   15.1560    5.1230 N   0  0  0  0  0  0  0  0  0  0  0  0
   12.8040   13.6810    4.5750 C   0  0  0  0  0  0  0  0  0  0  0  0
   14.5820   12.3860    2.5510 C   0  0  0  0  0  0  0  0  0  0  0  0
   21.1220   15.3870    5.6260 O   0  0  0  0  0  0  0  0  0  0  0  0
   21.0430   16.4390    4.9920 C   0  0  0  0  0  0  0  0  0  0  0  0
   19.8820   16.9950    4.4860 N   0  0  0  0  0  0  0  0  0  0  0  0
   22.3180   17.2420    4.7090 C   0  0  0  0  0  0  0  0  0  0  0  0
   22.9240   17.9850    5.9120 C   0  0  0  0  0  0  0  0  0  0  0  0
   23.1210   19.1620    5.0530 N   0  0  0  0  0  4  0  0  0  0  0  0
   22.1070   18.6480    4.1190 C   0  0  0  0  0  0  0  0  0  0  0  0
   18.0966   17.9073    6.1517 H   0  0  0  0  0  0  0  0  0  0  0  0
   15.7662   17.0945    6.4440 H   0  0  0  0  0  0  0  0  0  0  0  0
   18.7214   14.9455    3.0840 H   0  0  0  0  0  0  0  0  0  0  0  0
   12.6040   13.6179    5.6548 H   0  0  0  0  0  0  0  0  0  0  0  0
   12.1151   14.4055    4.1162 H   0  0  0  0  0  0  0  0  0  0  0  0
   12.6554   12.6924    4.1162 H   0  0  0  0  0  0  0  0  0  0  0  0
   14.2427   11.5581    3.1909 H   0  0  0  0  0  0  0  0  0  0  0  0
   13.7496   12.7234    1.9159 H   0  0  0  0  0  0  0  0  0  0  0  0
   15.4118   12.0422    1.9159 H   0  0  0  0  0  0  0  0  0  0  0  0
   19.9841   17.8832    3.9745 H   0  0  0  0  0  0  0  0  0  0  0  0
   22.8463   16.4399    4.1728 H   0  0  0  0  0  0  0  0  0  0  0  0
   22.2240   18.1445    6.7454 H   0  0  0  0  0  0  0  0  0  0  0  0
   23.7610   17.5531    6.4803 H   0  0  0  0  0  0  0  0  0  0  0  0
   22.8680   20.0554    5.4989 H   0  0  0  0  0  0  0  0  0  0  0  0
   24.0621   19.4107    4.7164 H   0  0  0  0  0  0  0  0  0  0  0  0
   21.0982   19.0581    4.2745 H   0  0  0  0  0  0  0  0  0  0  0  0
   22.1918   18.8265    3.0369 H   0  0  0  0  0  0  0  0  0  0  0  0
  2  1  2  0
  3  2  1  0
  4  3  2  0
  5  4  1  0
  6  5  2  0
  6  1  1  0
  7  5  1  0
  8  7  2  0
  9  8  1  0
 10  9  2  0
 10  4  1  0
 11  9  1  0
 12  8  1  0
 14 13  2  0
 15 14  1  0
 15  1  1  0
 16 14  1  0
 17 16  1  0
 18 17  1  0
 19 18  1  0
 19 16  1  0
  2 20  1  0
  3 21  1  0
  6 22  1  0
 11 23  1  0
 11 24  1  0
 11 25  1  0
 12 26  1  0
 12 27  1  0
 12 28  1  0
 15 29  1  0
 16 30  1  0
 17 31  1  0
 17 32  1  0
 18 33  1  0
 18 34  1  0
 19 35  1  0
 19 36  1  0
M  CHG  1  18   1
M  END
$$$$
=
     RDKit          3D

 26 26  0  0  0  0  0  0  0  0999 V2000
   15.6920   13.9560    3.2800 C   0  0  0  0  0  0  0  0  0  0  0  0
   14.6550   14.0030    4.2110 C   0  0  0  0  0  0  0  0  0  0  0  0
   14.6940   14.9080    5.2700 C   0  0  0  0  0  0  0  0  0  0  0  0
   15.7940   15.7490    5.4360 C   0  0  0  0  0  0  0  0  0  0  0  0
   16.8820   15.6830    4.5540 C   0  0  0  0  0  0  0  0  0  0  0  0
   16.8150   14.7650    3.4870 C   0  0  0  0  0  0  0  0  0  0  0  0
   15.7100   12.9650    2.2950 N   0  0  0  0  0  0  0  0  0  0  0  0
   18.1220   16.5500    4.7080 C   0  0  1  0  0  0  0  0  0  0  0  0
   18.0140   17.6680    5.7470 C   0  0  0  0  0  0  0  0  0  0  0  0
   19.5670   15.4980    5.0300 S   0  0  0  0  0  6  0  0  0  0  0  0
   19.2420   14.5800    6.1080 O   0  0  0  0  0  0  0  0  0  0  0  0
   20.0270   14.9610    3.7590 O   0  0  0  0  0  0  0  0  0  0  0  0
   20.8500   16.5850    5.6180 C   0  0  0  0  0  0  0  0  0  0  0  0
   13.7989   13.3199    4.1087 H   0  0  0  0  0  0  0  0  0  0  0  0
   13.8536   14.9592    5.9779 H   0  0  0  0  0  0  0  0  0  0  0  0
   15.8082   16.4705    6.2662 H   0  0  0  0  0  0  0  0  0  0  0  0
   17.6686   14.6820    2.7981 H   0  0  0  0  0  0  0  0  0  0  0  0
   16.4781   12.9342    1.6094 H   0  0  0  0  0  0  0  0  0  0  0  0
   14.9552   12.2653    2.2546 H   0  0  0  0  0  0  0  0  0  0  0  0
   18.2364   17.0805    3.7512 H   0  0  0  0  0  0  0  0  0  0  0  0
   18.0558   17.2349    6.7573 H   0  0  0  0  0  0  0  0  0  0  0  0
   18.8482   18.3728    5.6153 H   0  0  0  0  0  0  0  0  0  0  0  0
   17.0603   18.2000    5.6153 H   0  0  0  0  0  0  0  0  0  0  0  0
   20.8529   16.5875    6.7180 H   0  0  0  0  0  0  0  0  0  0  0  0
   21.8253   16.2341    5.2495 H   0  0  0  0  0  0  0  0  0  0  0  0
   20.6641   17.6046    5.2495 H   0  0  0  0  0  0  0  0  0  0  0  0
  2  1  2  0
  3  2  1  0
  4  3  2  0
  5  4  1  0
  6  1  1  0
  6  5  2  0
  7  1  1  0
  8  5  1  0
  9  8  1  0
 10  8  1  0
 11 10  2  0
 12 10  2  0
 13 10  1  0
  2 14  1  0
  3 15  1  0
  4 16  1  0
  6 17  1  0
  7 18  1  0
  7 19  1  0
  8 20  1  6
  9 21  1  0
  9 22  1  0
  9 23  1  0
 13 24  1  0
 13 25  1  0
 13 26  1  0
M  END
$$$$
=
     RDKit          3D

 34 34  0  0  0  0  0  0  0  0999 V2000
   16.5070   14.1200    3.5280 C   0  0  0  0  0  0  0  0  0  0  0  0
   15.5590   14.8990    4.1990 C   0  0  0  0  0  0  0  0  0  0  0  0
   14.2070   14.5390    4.1660 C   0  0  0  0  0  0  0  0  0  0  0  0
   13.7870   13.4000    3.4600 C   0  0  0  0  0  0  0  0  0  0  0  0
   14.7450   12.6210    2.7930 C   0  0  0  0  0  0  0  0  0  0  0  0
   16.0940   12.9780    2.8330 C   0  0  0  0  0  0  0  0  0  0  0  0
   18.3140   15.6840    4.0110 N   0  0  0  0  0  0  0  0  0  0  0  0
   17.9610   14.4290    3.5660 C   0  0  0  0  0  0  0  0  0  0  0  0
   18.7600   13.5790    3.1930 O   0  0  0  0  0  0  0  0  0  0  0  0
   19.7110   16.0820    4.1500 C   0  0  2  0  0  0  0  0  0  0  0  0
   20.0990   16.0960    5.6280 C   0  0  0  0  0  0  0  0  0  0  0  0
   19.5660   17.5090    2.0480 C   0  0  0  0  0  0  0  0  0  0  0  0
   19.9550   17.4620    3.5200 C   0  0  0  0  0  0  0  0  0  0  0  0
   12.3470   12.9760    3.4730 C   0  0  0  0  0  0  0  0  0  0  0  0
   12.1270   11.8330    2.5610 N   0  0  0  0  0  4  0  0  0  0  0  0
   15.8761   15.7949    4.7529 H   0  0  0  0  0  0  0  0  0  0  0  0
   13.4663   15.1540    4.6981 H   0  0  0  0  0  0  0  0  0  0  0  0
   14.4317   11.7254    2.2364 H   0  0  0  0  0  0  0  0  0  0  0  0
   16.8384   12.3564    2.3139 H   0  0  0  0  0  0  0  0  0  0  0  0
   17.5734   16.3582    4.2516 H   0  0  0  0  0  0  0  0  0  0  0  0
   20.3381   15.3514    3.6181 H   0  0  0  0  0  0  0  0  0  0  0  0
   19.1897   16.0632    6.2461 H   0  0  0  0  0  0  0  0  0  0  0  0
   20.7257   15.2199    5.8509 H   0  0  0  0  0  0  0  0  0  0  0  0
   20.6609   17.0150    5.8509 H   0  0  0  0  0  0  0  0  0  0  0  0
   18.4774   17.6405    1.9604 H   0  0  0  0  0  0  0  0  0  0  0  0
   20.0776   18.3519    1.5603 H   0  0  0  0  0  0  0  0  0  0  0  0
   19.8621   16.5685    1.5603 H   0  0  0  0  0  0  0  0  0  0  0  0
   19.3602   18.2090    4.0660 H   0  0  0  0  0  0  0  0  0  0  0  0
   21.0322   17.6742    3.5877 H   0  0  0  0  0  0  0  0  0  0  0  0
   12.0674   12.6807    4.4951 H   0  0  0  0  0  0  0  0  0  0  0  0
   11.7282   13.8203    3.1351 H   0  0  0  0  0  0  0  0  0  0  0  0
   11.9627   10.9795    3.1137 H   0  0  0  0  0  0  0  0  0  0  0  0
   11.3067   12.0206    1.9670 H   0  0  0  0  0  0  0  0  0  0  0  0
   12.9584   11.7027    1.9670 H   0  0  0  0  0  0  0  0  0  0  0  0
  2  1  2  0
  3  2  1  0
  4  3  2  0
  5  4  1  0
  6  5  2  0
  6  1  1  0
  8  7  1  0
  8  1  1  0
  9  8  2  0
 10  7  1  0
 11 10  1  0
 13 10  1  0
 13 12  1  0
 14  4  1  0
 15 14  1  0
  2 16  1  0
  3 17  1  0
  5 18  1  0
  6 19  1  0
  7 20  1  0
 10 21  1  6
 11 22  1  0
 11 23  1  0
 11 24  1  0
 12 25  1  0
 12 26  1  0
 12 27  1  0
 13 28  1  0
 13 29  1  0
 14 30  1  0
 14 31  1  0
 15 32  1  0
 15 33  1  0
 15 34  1  0
M  CHG  1  15   1
M  END
$$$$
=
     RDKit          3D

 38 39  0  0  0  0  0  0  0  0999 V2000
   15.6960   15.5240    4.4810 C   0  0  0  0  0  0  0  0  0  0  0  0
   16.2330   16.3970    5.4340 C   0  0  0  0  0  0  0  0  0  0  0  0
   17.5970   16.3650    5.7190 C   0  0  0  0  0  0  0  0  0  0  0  0
   18.4270   15.4580    5.0630 C   0  0  0  0  0  0  0  0  0  0  0  0
   17.9070   14.6260    4.1310 N   0  0  0  0  0  0  0  0  0  0  0  0
   16.5850   14.6600    3.8380 C   0  0  0  0  0  0  0  0  0  0  0  0
   16.1550   13.7010    2.7640 C   0  0  0  0  0  0  0  0  0  0  0  0
   19.8150   15.4560    5.3390 N   0  0  0  0  0  0  0  0  0  0  0  0
   20.1700   14.7250    6.5630 C   0  0  0  0  0  0  0  0  0  0  0  0
   20.7040   16.5330    5.0910 C   0  0  0  0  0  0  0  0  0  0  0  0
   21.7110   16.8330    6.0220 C   0  0  0  0  0  0  0  0  0  0  0  0
   22.6010   17.8870    5.8040 C   0  0  0  0  0  0  0  0  0  0  0  0
   22.4920   18.6610    4.6510 C   0  0  0  0  0  0  0  0  0  0  0  0
   21.4960   18.3830    3.7190 C   0  0  0  0  0  0  0  0  0  0  0  0
   20.6090   17.3260    3.9370 C   0  0  0  0  0  0  0  0  0  0  0  0
   14.2230   15.5450    4.2010 C   0  0  0  0  0  0  0  0  0  0  0  0
   12.5500   13.6720    3.9440 C   0  0  0  0  0  0  0  0  0  0  0  0
   13.4820   14.4100    4.8370 N   0  0  0  0  0  4  0  0  0  0  0  0
   15.5783   17.1087    5.9583 H   0  0  0  0  0  0  0  0  0  0  0  0
   18.0189   17.0568    6.4629 H   0  0  0  0  0  0  0  0  0  0  0  0
   15.7468   12.7906    3.2273 H   0  0  0  0  0  0  0  0  0  0  0  0
   15.3822   14.1726    2.1393 H   0  0  0  0  0  0  0  0  0  0  0  0
   17.0212   13.4377    2.1393 H   0  0  0  0  0  0  0  0  0  0  0  0
   19.8812   15.3198    7.4421 H   0  0  0  0  0  0  0  0  0  0  0  0
   19.6394   13.7616    6.5817 H   0  0  0  0  0  0  0  0  0  0  0  0
   21.2552   14.5463    6.5817 H   0  0  0  0  0  0  0  0  0  0  0  0
   21.8004   16.2289    6.9369 H   0  0  0  0  0  0  0  0  0  0  0  0
   23.3870   18.1056    6.5418 H   0  0  0  0  0  0  0  0  0  0  0  0
   23.1924   19.4912    4.4771 H   0  0  0  0  0  0  0  0  0  0  0  0
   21.4073   18.9962    2.8101 H   0  0  0  0  0  0  0  0  0  0  0  0
   19.8260   17.1125    3.1945 H   0  0  0  0  0  0  0  0  0  0  0  0
   13.8087   16.4898    4.5828 H   0  0  0  0  0  0  0  0  0  0  0  0
   14.0973   15.4464    3.1127 H   0  0  0  0  0  0  0  0  0  0  0  0
   11.8318   13.1033    4.5530 H   0  0  0  0  0  0  0  0  0  0  0  0
   12.0068   14.3875    3.3092 H   0  0  0  0  0  0  0  0  0  0  0  0
   13.1219   12.9792    3.3092 H   0  0  0  0  0  0  0  0  0  0  0  0
   12.9346   14.7894    5.6227 H   0  0  0  0  0  0  0  0  0  0  0  0
   14.1999   13.7282    5.1211 H   0  0  0  0  0  0  0  0  0  0  0  0
  2  1  2  0
  3  2  1  0
  4  3  2  0
  5  4  1  0
  6  1  1  0
  6  5  2  0
  7  6  1  0
  8  4  1  0
  9  8  1  0
 10  8  1  0
 11 10  2  0
 12 11  1  0
 13 12  2  0
 14 13  1  0
 15 14  2  0
 15 10  1  0
 16  1  1  0
 18 17  1  0
 18 16  1  0
  2 19  1  0
  3 20  1  0
  7 21  1  0
  7 22  1  0
  7 23  1  0
  9 24  1  0
  9 25  1  0
  9 26  1  0
 11 27  1  0
 12 28  1  0
 13 29  1  0
 14 30  1  0
 15 31  1  0
 16 32  1  0
 16 33  1  0
 17 34  1  0
 17 35  1  0
 17 36  1  0
 18 37  1  0
 18 38  1  0
M  CHG  1  18   1
M  END
$$$$
=
     RDKit          3D

 25 25  0  0  0  0  0  0  0  0999 V2000
   19.8170   15.4050    4.8040 C   0  0  1  0  0  0  0  0  0  0  0  0
   18.8570   16.6110    4.7920 C   0  0  0  0  0  0  0  0  0  0  0  0
   17.5770   16.2610    4.0670 N   0  0  0  0  0  4  0  0  0  0  0  0
   17.2390   14.8000    4.1430 C   0  0  0  0  0  0  0  0  0  0  0  0
   18.3890   13.9880    3.5230 C   0  0  0  0  0  0  0  0  0  0  0  0
   19.6490   14.6790    3.5740 O   0  0  0  0  0  0  0  0  0  0  0  0
   21.2710   15.8610    4.9200 C   0  0  0  0  0  0  0  0  0  0  0  0
   21.6390   16.0730    6.3670 C   0  0  0  0  0  0  0  0  0  0  0  0
   21.1070   15.4960    7.3040 O   0  0  0  0  0  0  0  0  0  0  0  0
   22.4750   18.0830    5.5020 C   0  0  0  0  0  0  0  0  0  0  0  0
   22.5950   17.0340    6.4660 O   0  0  0  0  0  0  0  0  0  0  0  0
   19.5835   14.7703    5.6715 H   0  0  0  0  0  0  0  0  0  0  0  0
   18.6202   16.8957    5.8278 H   0  0  0  0  0  0  0  0  0  0  0  0
   19.3438   17.4484    4.2707 H   0  0  0  0  0  0  0  0  0  0  0  0
   16.8050   16.7985    4.4864 H   0  0  0  0  0  0  0  0  0  0  0  0
   17.7129   16.4940    3.0729 H   0  0  0  0  0  0  0  0  0  0  0  0
   17.1052   14.5065    5.1946 H   0  0  0  0  0  0  0  0  0  0  0  0
   16.3068   14.6047    3.5927 H   0  0  0  0  0  0  0  0  0  0  0  0
   18.4856   13.0397    4.0720 H   0  0  0  0  0  0  0  0  0  0  0  0
   18.1443   13.8226    2.4634 H   0  0  0  0  0  0  0  0  0  0  0  0
   21.9281   15.0922    4.4873 H   0  0  0  0  0  0  0  0  0  0  0  0
   21.3929   16.8098    4.3770 H   0  0  0  0  0  0  0  0  0  0  0  0
   22.3648   19.0468    6.0207 H   0  0  0  0  0  0  0  0  0  0  0  0
   23.3763   18.1067    4.8718 H   0  0  0  0  0  0  0  0  0  0  0  0
   21.5916   17.9026    4.8718 H   0  0  0  0  0  0  0  0  0  0  0  0
  2  1  1  0
  3  2  1  0
  4  3  1  0
  5  4  1  0
  6  5  1  0
  6  1  1  0
  7  1  1  0
  8  7  1  0
  9  8  2  0
 11  8  1  0
 11 10  1  0
  1 12  1  1
  2 13  1  0
  2 14  1  0
  3 15  1  0
  3 16  1  0
  4 17  1  0
  4 18  1  0
  5 19  1  0
  5 20  1  0
  7 21  1  0
  7 22  1  0
 10 23  1  0
 10 24  1  0
 10 25  1  0
M  CHG  1   3   1
M  END
$$$$
=
     RDKit          3D

 37 39  0  0  0  0  0  0  0  0999 V2000
   19.9680   15.6170    4.2270 C   0  0  2  0  0  0  0  0  0  0  0  0
   20.5460   14.6170    5.2080 N   0  0  0  0  0  4  0  0  0  0  0  0
   20.7730   15.1580    6.6010 C   0  0  0  0  0  0  0  0  0  0  0  0
   21.8100   16.2970    6.5950 C   0  0  0  0  0  0  0  0  0  0  0  0
   21.5730   17.1850    5.4320 C   0  0  0  0  0  0  0  0  0  0  0  0
   20.7600   16.8630    4.3690 C   0  0  0  0  0  0  0  0  0  0  0  0
   20.8690   17.9140    3.4980 N   0  0  0  0  0  0  0  0  0  0  0  0
   21.7210   18.8190    4.0800 C   0  0  0  0  0  0  0  0  0  0  0  0
   22.1610   18.3950    5.2460 N   0  0  0  0  0  0  0  0  0  0  0  0
   17.6130   14.8510    3.7240 C   0  0  0  0  0  0  0  0  0  0  0  0
   16.2160   14.8820    3.9080 C   0  0  0  0  0  0  0  0  0  0  0  0
   15.6690   15.8610    4.7390 C   0  0  0  0  0  0  0  0  0  0  0  0
   16.4920   16.7680    5.4070 C   0  0  0  0  0  0  0  0  0  0  0  0
   17.8770   16.7070    5.2580 C   0  0  0  0  0  0  0  0  0  0  0  0
   18.4640   15.7500    4.4130 C   0  0  0  0  0  0  0  0  0  0  0  0
   18.1900   12.5660    3.4490 C   0  0  0  0  0  0  0  0  0  0  0  0
   18.2790   13.9110    2.9640 O   0  0  0  0  0  0  0  0  0  0  0  0
   15.4800   13.9120    3.2840 O   0  0  0  0  0  0  0  0  0  0  0  0
   14.1940   13.6040    3.8110 C   0  0  0  0  0  0  0  0  0  0  0  0
   20.0567   15.2931    3.1795 H   0  0  0  0  0  0  0  0  0  0  0  0
   19.8961   13.8208    5.2750 H   0  0  0  0  0  0  0  0  0  0  0  0
   21.4727   14.3539    4.8434 H   0  0  0  0  0  0  0  0  0  0  0  0
   19.8209   15.5419    6.9962 H   0  0  0  0  0  0  0  0  0  0  0  0
   21.1552   14.3428    7.2329 H   0  0  0  0  0  0  0  0  0  0  0  0
   21.7185   16.8792    7.5238 H   0  0  0  0  0  0  0  0  0  0  0  0
   22.8205   15.8681    6.5248 H   0  0  0  0  0  0  0  0  0  0  0  0
   20.4026   18.0072    2.5844 H   0  0  0  0  0  0  0  0  0  0  0  0
   22.0020   19.7814    3.6273 H   0  0  0  0  0  0  0  0  0  0  0  0
   14.5781   15.9179    4.8685 H   0  0  0  0  0  0  0  0  0  0  0  0
   16.0454   17.5362    6.0554 H   0  0  0  0  0  0  0  0  0  0  0  0
   18.5159   17.4145    5.8069 H   0  0  0  0  0  0  0  0  0  0  0  0
   18.1904   12.5721    4.5490 H   0  0  0  0  0  0  0  0  0  0  0  0
   17.2594   12.1059    3.0852 H   0  0  0  0  0  0  0  0  0  0  0  0
   19.0518   11.9873    3.0852 H   0  0  0  0  0  0  0  0  0  0  0  0
   14.2361   13.6141    4.9101 H   0  0  0  0  0  0  0  0  0  0  0  0
   13.4669   14.3534    3.4650 H   0  0  0  0  0  0  0  0  0  0  0  0
   13.8853   12.6065    3.4650 H   0  0  0  0  0  0  0  0  0  0  0  0
  2  1  1  0
  3  2  1  0
  4  3  1  0
  5  4  1  0
  6  1  1  0
  6  5  2  0
  7  6  1  0
  8  7  1  0
  9  8  2  0
  9  5  1  0
 11 10  2  0
 12 11  1  0
 13 12  2  0
 14 13  1  0
 15 10  1  0
 15  1  1  0
 15 14  2  0
 17 16  1  0
 17 10  1  0
 18 11  1  0
 19 18  1  0
  1 20  1  6
  2 21  1  0
  2 22  1  0
  3 23  1  0
  3 24  1  0
  4 25  1  0
  4 26  1  0
  7 27  1  0
  8 28  1  0
 12 29  1  0
 13 30  1  0
 14 31  1  0
 16 32  1  0
 16 33  1  0
 16 34  1  0
 19 35  1  0
 19 36  1  0
 19 37  1  0
M  CHG  1   2   1
M  END
$$$$
=
     RDKit          3D

 23 24  0  0  0  0  0  0  0  0999 V2000
   19.5720   17.3510    4.2780 C   0  0  0  0  0  0  0  0  0  0  0  0
   20.1100   17.7180    5.5230 C   0  0  0  0  0  0  0  0  0  0  0  0
   21.3260   18.3940    5.5940 C   0  0  0  0  0  0  0  0  0  0  0  0
   22.0120   18.6950    4.4230 C   0  0  0  0  0  0  0  0  0  0  0  0
   21.4660   18.3520    3.1830 C   0  0  0  0  0  0  0  0  0  0  0  0
   20.2100   17.7330    3.0830 C   0  0  0  0  0  0  0  0  0  0  0  0
   19.7480   17.3790    1.8040 N   0  0  0  0  0  0  0  0  0  0  0  0
   18.1360   15.6440    3.5260 O   0  0  0  0  0  0  0  0  0  0  0  0
   18.3210   16.5580    4.3210 C   0  0  0  0  0  0  0  0  0  0  0  0
   17.2690   16.8950    5.3170 C   0  0  0  0  0  0  0  0  0  0  0  0
   16.9760   15.9130    6.4300 C   0  0  0  0  0  0  0  0  0  0  0  0
   15.9520   16.1570    5.3640 C   0  0  0  0  0  0  0  0  0  0  0  0
   19.5677   17.4700    6.4473 H   0  0  0  0  0  0  0  0  0  0  0  0
   21.7404   18.6875    6.5698 H   0  0  0  0  0  0  0  0  0  0  0  0
   22.9860   19.2039    4.4724 H   0  0  0  0  0  0  0  0  0  0  0  0
   22.0324   18.5717    2.2660 H   0  0  0  0  0  0  0  0  0  0  0  0
   18.8307   16.9233    1.6957 H   0  0  0  0  0  0  0  0  0  0  0  0
   20.3267   17.5752    0.9748 H   0  0  0  0  0  0  0  0  0  0  0  0
   17.5478   17.9564    5.2414 H   0  0  0  0  0  0  0  0  0  0  0  0
   17.5098   14.9520    6.4694 H   0  0  0  0  0  0  0  0  0  0  0  0
   16.9796   15.9610    7.5289 H   0  0  0  0  0  0  0  0  0  0  0  0
   15.7345   15.3744    4.6223 H   0  0  0  0  0  0  0  0  0  0  0  0
   14.8939   16.4576    5.3592 H   0  0  0  0  0  0  0  0  0  0  0  0
  2  1  2  0
  3  2  1  0
  4  3  2  0
  5  4  1  0
  6  5  2  0
  6  1  1  0
  7  6  1  0
  9  8  2  0
  9  1  1  0
 10  9  1  0
 11 10  1  0
 12 11  1  0
 12 10  1  0
  2 13  1  0
  3 14  1  0
  4 15  1  0
  5 16  1  0
  7 17  1  0
  7 18  1  0
 10 19  1  0
 11 20  1  0
 11 21  1  0
 12 22  1  0
 12 23  1  0
M  END
$$$$
=
     RDKit          3D

 34 36  0  0  0  0  0  0  0  0999 V2000
   18.2240   15.7940    6.0470 C   0  0  0  0  0  0  0  0  0  0  0  0
   19.3630   15.0920    5.3800 N   0  0  0  0  0  4  0  0  0  0  0  0
   19.9210   15.7550    4.1780 C   0  0  0  0  0  0  0  0  0  0  0  0
   20.9200   16.7930    4.5590 C   0  0  0  0  0  0  0  0  0  0  0  0
   21.2190   17.9810    3.9200 C   0  0  0  0  0  0  0  0  0  0  0  0
   22.2480   18.7080    4.5880 C   0  0  0  0  0  0  0  0  0  0  0  0
   22.6980   18.0540    5.7120 C   0  0  0  0  0  0  0  0  0  0  0  0
   21.8860   16.5720    5.9590 S   0  0  0  0  0  0  0  0  0  0  0  0
   17.3190   16.4610    5.0030 C   0  0  0  0  0  0  0  0  0  0  0  0
   16.1960   15.5780    4.5780 C   0  0  0  0  0  0  0  0  0  0  0  0
   16.4540   14.4650    3.7980 N   0  0  0  0  0  0  0  0  0  0  0  0
   15.2760   13.9120    3.5780 C   0  0  0  0  0  0  0  0  0  0  0  0
   14.2530   14.6310    4.1940 N   0  0  0  0  0  0  0  0  0  0  0  0
   14.8460   15.6930    4.8310 C   0  0  0  0  0  0  0  0  0  0  0  0
   12.9090   14.2720    4.1280 C   0  0  0  0  0  0  0  0  0  0  0  0
   12.5610   13.1750    3.4360 C   0  0  0  0  0  0  0  0  0  0  0  0
   13.5990   12.3980    2.7750 C   0  0  0  0  0  0  0  0  0  0  0  0
   14.8980   12.7510    2.8440 C   0  0  0  0  0  0  0  0  0  0  0  0
   17.6359   15.0640    6.6225 H   0  0  0  0  0  0  0  0  0  0  0  0
   18.6263   16.5687    6.7163 H   0  0  0  0  0  0  0  0  0  0  0  0
   20.1225   14.9985    6.0694 H   0  0  0  0  0  0  0  0  0  0  0  0
   18.9805   14.1946    5.0495 H   0  0  0  0  0  0  0  0  0  0  0  0
   20.4097   15.0001    3.5445 H   0  0  0  0  0  0  0  0  0  0  0  0
   19.0995   16.2415    3.6316 H   0  0  0  0  0  0  0  0  0  0  0  0
   20.7208   18.3262    3.0020 H   0  0  0  0  0  0  0  0  0  0  0  0
   22.6366   19.6782    4.2449 H   0  0  0  0  0  0  0  0  0  0  0  0
   23.4876   18.4402    6.3734 H   0  0  0  0  0  0  0  0  0  0  0  0
   16.9003   17.3819    5.4350 H   0  0  0  0  0  0  0  0  0  0  0  0
   17.9321   16.6750    4.1151 H   0  0  0  0  0  0  0  0  0  0  0  0
   14.3464   16.4749    5.4218 H   0  0  0  0  0  0  0  0  0  0  0  0
   12.1438   14.8780    4.6352 H   0  0  0  0  0  0  0  0  0  0  0  0
   11.5067   12.8682    3.3697 H   0  0  0  0  0  0  0  0  0  0  0  0
   13.3165   11.5006    2.2051 H   0  0  0  0  0  0  0  0  0  0  0  0
   15.6628   12.1453    2.3358 H   0  0  0  0  0  0  0  0  0  0  0  0
  2  1  1  0
  3  2  1  0
  4  3  1  0
  5  4  2  0
  6  5  1  0
  7  6  2  0
  8  4  1  0
  8  7  1  0
  9  1  1  0
 10  9  1  0
 11 10  1  0
 12 11  2  0
 13 12  1  0
 14 13  1  0
 14 10  2  0
 15 13  1  0
 16 15  2  0
 17 16  1  0
 18 17  2  0
 18 12  1  0
  1 19  1  0
  1 20  1  0
  2 21  1  0
  2 22  1  0
  3 23  1  0
  3 24  1  0
  5 25  1  0
  6 26  1  0
  7 27  1  0
  9 28  1  0
  9 29  1  0
 14 30  1  0
 15 31  1  0
 16 32  1  0
 17 33  1  0
 18 34  1  0
M  CHG  1   2   1
M  END
$$$$
=
     RDKit          3D

 63 62  0  0  0  0  0  0  0  0999 V2000
   14.0950   14.4330    4.2930 C   0  0  0  0  0  0  0  0  0  0  0  0
   16.3740   15.5670    4.3150 C   0  0  0  0  0  0  0  0  0  0  0  0
   15.3980   14.8780    3.6970 C   0  0  0  0  0  0  0  0  0  0  0  0
   16.4220   15.9890    5.7560 C   0  0  0  0  0  0  0  0  0  0  0  0
   18.7020   14.9500    5.9100 C   0  0  0  0  0  0  0  0  0  0  0  0
   17.8060   15.8620    6.3220 C   0  0  0  0  0  0  0  0  0  0  0  0
   20.0800   14.7940    6.4870 C   0  0  0  0  0  0  0  0  0  0  0  0
   21.5920   16.8480    6.2460 C   0  0  0  0  0  0  0  0  0  0  0  0
   21.1410   15.6480    5.8440 C   0  0  0  0  0  0  0  0  0  0  0  0
   22.6690   17.6210    5.5380 C   0  0  0  0  0  0  0  0  0  0  0  0
   22.1150   18.7230    4.6310 C   0  0  0  0  0  0  0  0  0  0  0  0
   21.4600   18.2650    3.3200 C   0  0  0  0  0  0  0  0  0  0  0  0
   19.3880   16.8520    2.8180 C   0  0  0  0  0  0  0  0  0  0  0  0
   19.9330   18.1620    3.3650 C   0  0  0  0  0  0  0  0  0  0  0  0
   13.6970   13.0640    3.8130 C   0  0  0  0  0  0  0  0  0  0  0  0
   12.4870   12.6700    3.3810 C   0  0  0  0  0  0  0  0  0  0  0  0
   11.2740   13.5370    3.2080 C   0  0  0  0  0  0  0  0  0  0  0  0
   10.9780   14.4120    4.4270 C   0  0  0  0  0  0  0  0  0  0  0  0
   10.6420   13.6000    5.6780 C   0  0  0  0  0  0  0  0  0  0  0  0
    9.3290   14.0260    6.2810 C   0  0  0  0  0  0  0  0  0  0  0  0
    9.1040   14.2450    7.4660 O   0  0  0  0  0  0  0  0  0  0  0  0
    8.3890   14.1890    5.3100 O   0  0  0  0  0  0  0  0  0  0  0  0
    7.1970   13.3780    5.3900 C   0  0  0  0  0  0  0  0  0  0  0  0
    7.4610   11.8750    5.2180 C   0  0  0  0  0  0  0  0  0  0  0  0
    7.4050   11.1650    6.5240 N   0  0  0  0  0  4  0  0  0  0  0  0
   14.1941   14.4109    5.3883 H   0  0  0  0  0  0  0  0  0  0  0  0
   13.3163   15.1439    3.9795 H   0  0  0  0  0  0  0  0  0  0  0  0
   17.2355   15.8543    3.6943 H   0  0  0  0  0  0  0  0  0  0  0  0
   15.5736   14.6129    2.6440 H   0  0  0  0  0  0  0  0  0  0  0  0
   16.1000   17.0381    5.8318 H   0  0  0  0  0  0  0  0  0  0  0  0
   15.7533   15.3308    6.3301 H   0  0  0  0  0  0  0  0  0  0  0  0
   18.4069   14.2721    5.0956 H   0  0  0  0  0  0  0  0  0  0  0  0
   18.1043   16.5565    7.1212 H   0  0  0  0  0  0  0  0  0  0  0  0
   20.0340   15.0538    7.5549 H   0  0  0  0  0  0  0  0  0  0  0  0
   20.3733   13.7499    6.3031 H   0  0  0  0  0  0  0  0  0  0  0  0
   21.1458   17.2917    7.1482 H   0  0  0  0  0  0  0  0  0  0  0  0
   21.6034   15.2390    4.9335 H   0  0  0  0  0  0  0  0  0  0  0  0
   23.3226   18.0832    6.2924 H   0  0  0  0  0  0  0  0  0  0  0  0
   23.2171   16.9129    4.8991 H   0  0  0  0  0  0  0  0  0  0  0  0
   21.3602   19.2805    5.2050 H   0  0  0  0  0  0  0  0  0  0  0  0
   22.9891   19.3181    4.3279 H   0  0  0  0  0  0  0  0  0  0  0  0
   21.7311   18.9841    2.5329 H   0  0  0  0  0  0  0  0  0  0  0  0
   21.8327   17.2482    3.1272 H   0  0  0  0  0  0  0  0  0  0  0  0
   19.1133   16.1917    3.6538 H   0  0  0  0  0  0  0  0  0  0  0  0
   18.4990   17.0533    2.2023 H   0  0  0  0  0  0  0  0  0  0  0  0
   20.1575   16.3634    2.2023 H   0  0  0  0  0  0  0  0  0  0  0  0
   19.5125   18.9870    2.7713 H   0  0  0  0  0  0  0  0  0  0  0  0
   19.6404   18.2124    4.4242 H   0  0  0  0  0  0  0  0  0  0  0  0
   14.4865   12.2980    3.8160 H   0  0  0  0  0  0  0  0  0  0  0  0
   12.3742   11.6052    3.1289 H   0  0  0  0  0  0  0  0  0  0  0  0
   11.4337   14.1917    2.3386 H   0  0  0  0  0  0  0  0  0  0  0  0
   10.4119   12.8679    3.0697 H   0  0  0  0  0  0  0  0  0  0  0  0
   11.8630   15.0304    4.6378 H   0  0  0  0  0  0  0  0  0  0  0  0
   10.0968   15.0246    4.1860 H   0  0  0  0  0  0  0  0  0  0  0  0
   10.5814   12.5357    5.4069 H   0  0  0  0  0  0  0  0  0  0  0  0
   11.4337   13.7721    6.4221 H   0  0  0  0  0  0  0  0  0  0  0  0
    6.7328   13.5388    6.3742 H   0  0  0  0  0  0  0  0  0  0  0  0
    6.5419   13.6864    4.5619 H   0  0  0  0  0  0  0  0  0  0  0  0
    6.6993   11.4516    4.5467 H   0  0  0  0  0  0  0  0  0  0  0  0
    8.4677   11.7449    4.7942 H   0  0  0  0  0  0  0  0  0  0  0  0
    7.4591   11.8511    7.2904 H   0  0  0  0  0  0  0  0  0  0  0  0
    6.5202   10.6423    6.5930 H   0  0  0  0  0  0  0  0  0  0  0  0
    8.1969   10.5100    6.5930 H   0  0  0  0  0  0  0  0  0  0  0  0
  3  1  1  0
  3  2  2  0
  4  2  1  0
  6  5  2  0
  6  4  1  0
  7  5  1  0
  9  7  1  0
  9  8  2  0
 10  8  1  0
 11 10  1  0
 12 11  1  0
 14 13  1  0
 14 12  1  0
 15  1  1  0
 16 15  2  0
 17 16  1  0
 18 17  1  0
 19 18  1  0
 20 19  1  0
 21 20  2  0
 22 20  1  0
 23 22  1  0
 24 23  1  0
 25 24  1  0
  1 26  1  0
  1 27  1  0
  2 28  1  0
  3 29  1  0
  4 30  1  0
  4 31  1  0
  5 32  1  0
  6 33  1  0
  7 34  1  0
  7 35  1  0
  8 36  1  0
  9 37  1  0
 10 38  1  0
 10 39  1  0
 11 40  1  0
 11 41  1  0
 12 42  1  0
 12 43  1  0
 13 44  1  0
 13 45  1  0
 13 46  1  0
 14 47  1  0
 14 48  1  0
 15 49  1  0
 16 50  1  0
 17 51  1  0
 17 52  1  0
 18 53  1  0
 18 54  1  0
 19 55  1  0
 19 56  1  0
 23 57  1  0
 23 58  1  0
 24 59  1  0
 24 60  1  0
 25 61  1  0
 25 62  1  0
 25 63  1  0
M  CHG  1  25   1
M  END
$$$$
=
     RDKit          3D

 25 25  0  0  0  0  0  0  0  0999 V2000
   21.3840   17.8950    3.8720 C   0  0  0  0  0  0  0  0  0  0  0  0
   20.9670   16.9530    5.0010 C   0  0  2  0  0  0  0  0  0  0  0  0
   20.7640   15.4890    4.4960 C   0  0  0  0  0  0  0  0  0  0  0  0
   19.6010   15.3580    3.5320 N   0  0  0  0  0  4  0  0  0  0  0  0
   18.3800   16.2020    3.8260 C   0  0  0  0  0  0  0  0  0  0  0  0
   18.3730   16.7410    5.2710 C   0  0  0  0  0  0  0  0  0  0  0  0
   19.6440   17.4750    5.6100 N   0  0  0  0  0  4  0  0  0  0  0  0
   22.0000   16.9740    6.1540 C   0  0  0  0  0  0  0  0  0  0  0  0
   21.7900   15.7720    6.9040 O   0  0  0  0  0  0  0  0  0  0  0  0
   21.7941   18.8215    4.3002 H   0  0  0  0  0  0  0  0  0  0  0  0
   22.1503   17.4072    3.2516 H   0  0  0  0  0  0  0  0  0  0  0  0
   20.5077   18.1343    3.2516 H   0  0  0  0  0  0  0  0  0  0  0  0
   21.6822   15.1623    3.9860 H   0  0  0  0  0  0  0  0  0  0  0  0
   20.5407   14.8633    5.3727 H   0  0  0  0  0  0  0  0  0  0  0  0
   19.9412   15.6162    2.5947 H   0  0  0  0  0  0  0  0  0  0  0  0
   19.2842   14.3818    3.6192 H   0  0  0  0  0  0  0  0  0  0  0  0
   18.3638   17.0543    3.1308 H   0  0  0  0  0  0  0  0  0  0  0  0
   17.4928   15.5638    3.7014 H   0  0  0  0  0  0  0  0  0  0  0  0
   17.5238   17.4303    5.3880 H   0  0  0  0  0  0  0  0  0  0  0  0
   18.2872   15.8814    5.9520 H   0  0  0  0  0  0  0  0  0  0  0  0
   19.5271   18.4500    5.2992 H   0  0  0  0  0  0  0  0  0  0  0  0
   19.7566   17.3405    6.6250 H   0  0  0  0  0  0  0  0  0  0  0  0
   23.0225   16.9964    5.7489 H   0  0  0  0  0  0  0  0  0  0  0  0
   21.8760   17.8661    6.7856 H   0  0  0  0  0  0  0  0  0  0  0  0
   21.8257   15.9765    7.8720 H   0  0  0  0  0  0  0  0  0  0  0  0
  2  1  1  6
  3  2  1  0
  4  3  1  0
  5  4  1  0
  6  5  1  0
  7  6  1  0
  7  2  1  0
  8  2  1  0
  9  8  1  0
  1 10  1  0
  1 11  1  0
  1 12  1  0
  3 13  1  0
  3 14  1  0
  4 15  1  0
  4 16  1  0
  5 17  1  0
  5 18  1  0
  6 19  1  0
  6 20  1  0
  7 21  1  0
  7 22  1  0
  8 23  1  0
  8 24  1  0
  9 25  1  0
M  CHG  2   4   1   7   1
M  END
$$$$
=
     RDKit          3D

 34 36  0  0  0  0  0  0  0  0999 V2000
   16.1110   15.3570    4.5130 C   0  0  0  0  0  0  0  0  0  0  0  0
   15.8610   15.5040    5.8220 N   0  0  0  0  0  0  0  0  0  0  0  0
   16.7480   16.2460    6.5110 C   0  0  0  0  0  0  0  0  0  0  0  0
   17.8590   16.8280    5.9430 C   0  0  0  0  0  0  0  0  0  0  0  0
   18.0440   16.6200    4.5880 C   0  0  0  0  0  0  0  0  0  0  0  0
   17.1620   15.8870    3.8670 N   0  0  0  0  0  0  0  0  0  0  0  0
   12.8840   13.4230    3.6820 C   0  0  0  0  0  0  0  0  0  0  0  0
   13.5720   12.1460    3.3310 N   0  0  0  0  0  4  0  0  0  0  0  0
   14.8110   12.3300    2.5190 C   0  0  0  0  0  0  0  0  0  0  0  0
   15.7900   13.1970    3.2900 C   0  0  0  0  0  0  0  0  0  0  0  0
   15.1470   14.5290    3.7000 C   0  0  0  0  0  0  0  0  0  0  0  0
   13.8370   14.3050    4.4680 C   0  0  0  0  0  0  0  0  0  0  0  0
   19.1770   17.1660    3.8290 C   0  0  0  0  0  0  0  0  0  0  0  0
   19.2340   17.2400    2.4460 C   0  0  0  0  0  0  0  0  0  0  0  0
   20.2730   17.7380    1.7390 N   0  0  0  0  0  0  0  0  0  0  0  0
   21.3070   18.1930    2.4600 C   0  0  0  0  0  0  0  0  0  0  0  0
   21.3820   18.1930    3.7960 N   0  0  0  0  0  0  0  0  0  0  0  0
   20.3110   17.6790    4.4430 C   0  0  0  0  0  0  0  0  0  0  0  0
   16.5757   16.3956    7.5871 H   0  0  0  0  0  0  0  0  0  0  0  0
   18.5641   17.4282    6.5368 H   0  0  0  0  0  0  0  0  0  0  0  0
   12.5783   13.9412    2.7611 H   0  0  0  0  0  0  0  0  0  0  0  0
   11.9936   13.2073    4.2909 H   0  0  0  0  0  0  0  0  0  0  0  0
   13.8256   11.6634    4.2049 H   0  0  0  0  0  0  0  0  0  0  0  0
   12.9150   11.6009    2.7547 H   0  0  0  0  0  0  0  0  0  0  0  0
   15.2676   11.3497    2.3175 H   0  0  0  0  0  0  0  0  0  0  0  0
   14.5585   12.8167    1.5654 H   0  0  0  0  0  0  0  0  0  0  0  0
   16.1101   12.6594    4.1947 H   0  0  0  0  0  0  0  0  0  0  0  0
   16.6520   13.4111    2.6411 H   0  0  0  0  0  0  0  0  0  0  0  0
   14.9036   15.0823    2.7810 H   0  0  0  0  0  0  0  0  0  0  0  0
   14.0631   13.8212    5.4297 H   0  0  0  0  0  0  0  0  0  0  0  0
   13.3560   15.2812    4.6286 H   0  0  0  0  0  0  0  0  0  0  0  0
   18.3680   16.8650    1.8809 H   0  0  0  0  0  0  0  0  0  0  0  0
   22.1661   18.6007    1.9071 H   0  0  0  0  0  0  0  0  0  0  0  0
   20.3413   17.6667    5.5425 H   0  0  0  0  0  0  0  0  0  0  0  0
  2  1  2  0
  3  2  1  0
  4  3  2  0
  5  4  1  0
  6  1  1  0
  6  5  2  0
  8  7  1  0
  9  8  1  0
 10  9  1  0
 11 10  1  0
 11  1  1  0
 12 11  1  0
 12  7  1  0
 13  5  1  0
 14 13  2  0
 15 14  1  0
 16 15  2  0
 17 16  1  0
 18 17  2  0
 18 13  1  0
  3 19  1  0
  4 20  1  0
  7 21  1  0
  7 22  1  0
  8 23  1  0
  8 24  1  0
  9 25  1  0
  9 26  1  0
 10 27  1  0
 10 28  1  0
 11 29  1  0
 12 30  1  0
 12 31  1  0
 14 32  1  0
 16 33  1  0
 18 34  1  0
M  CHG  1   8   1
M  END
$$$$
=
     RDKit          3D

 52 54  0  0  0  0  0  0  0  0999 V2000
   30.1290   25.2420   17.0520 C   0  0  0  0  0  0  0  0  0  0  0  0
   28.1590   26.5520   16.5890 N   0  0  0  0  0  0  0  0  0  0  0  0
   29.5380   26.5600   16.5910 C   0  0  0  0  0  0  0  0  0  0  0  0
   30.1980   27.5400   16.2610 O   0  0  0  0  0  0  0  0  0  0  0  0
   25.1950   26.9880   16.0410 N   0  0  0  0  0  0  0  0  0  0  0  0
   26.0240   27.7750   16.9260 C   0  0  0  0  0  0  0  0  0  0  0  0
   27.3900   27.7470   16.2390 C   0  0  2  0  0  0  0  0  0  0  0  0
   27.0220   27.7540   14.7570 C   0  0  0  0  0  0  0  0  0  0  0  0
   25.6710   27.0770   14.7320 C   0  0  0  0  0  0  0  0  0  0  0  0
   25.0910   26.7170   13.7230 O   0  0  0  0  0  0  0  0  0  0  0  0
   23.7880   26.7320   16.3080 C   0  0  0  0  0  0  0  0  0  0  0  0
   21.9850   26.5660   18.0580 C   0  0  0  0  0  0  0  0  0  0  0  0
   23.3720   27.0960   17.7320 C   0  0  0  0  0  0  0  0  0  0  0  0
   30.3680   24.2610   15.9090 C   0  0  0  0  0  0  0  0  0  0  0  0
   29.3740   24.3780   14.8020 C   0  0  0  0  0  0  0  0  0  0  0  0
   28.1990   23.7440   14.8610 N   0  0  0  0  0  0  0  0  0  0  0  0
   27.5710   24.0790   13.7240 N   0  0  0  0  0  0  0  0  0  0  0  0
   28.3260   24.8860   12.9150 C   0  0  0  0  0  0  0  0  0  0  0  0
   29.4980   25.1130   13.6030 C   0  0  0  0  0  0  0  0  0  0  0  0
   27.8880   25.3490   11.5950 C   0  0  0  0  0  0  0  0  0  0  0  0
   27.7600   24.2220   10.6330 N   0  0  0  0  0  4  0  0  0  0  0  0
   26.9640   23.0220   11.0460 C   0  0  0  0  0  0  0  0  0  0  0  0
   25.8330   23.3770   12.0010 C   0  0  0  0  0  0  0  0  0  0  0  0
   26.2780   23.4720   13.4650 C   0  0  0  0  0  0  0  0  0  0  0  0
   31.0904   25.4436   17.5471 H   0  0  0  0  0  0  0  0  0  0  0  0
   29.4028   24.7782   17.7357 H   0  0  0  0  0  0  0  0  0  0  0  0
   27.6596   25.6866   16.8392 H   0  0  0  0  0  0  0  0  0  0  0  0
   25.6454   28.8044   17.0101 H   0  0  0  0  0  0  0  0  0  0  0  0
   26.0495   27.3855   17.9544 H   0  0  0  0  0  0  0  0  0  0  0  0
   28.0344   28.5870   16.5376 H   0  0  0  0  0  0  0  0  0  0  0  0
   26.9548   28.7824   14.3724 H   0  0  0  0  0  0  0  0  0  0  0  0
   27.7683   27.2499   14.1254 H   0  0  0  0  0  0  0  0  0  0  0  0
   23.1848   27.3249   15.6048 H   0  0  0  0  0  0  0  0  0  0  0  0
   23.6221   25.6517   16.1840 H   0  0  0  0  0  0  0  0  0  0  0  0
   21.8582   26.5176   19.1496 H   0  0  0  0  0  0  0  0  0  0  0  0
   21.2260   27.2374   17.6301 H   0  0  0  0  0  0  0  0  0  0  0  0
   21.8672   25.5595   17.6301 H   0  0  0  0  0  0  0  0  0  0  0  0
   24.0957   26.6626   18.4380 H   0  0  0  0  0  0  0  0  0  0  0  0
   23.3521   28.1925   17.8169 H   0  0  0  0  0  0  0  0  0  0  0  0
   31.3709   24.4457   15.4965 H   0  0  0  0  0  0  0  0  0  0  0  0
   30.2668   23.2486   16.3271 H   0  0  0  0  0  0  0  0  0  0  0  0
   30.3486   25.7342   13.2858 H   0  0  0  0  0  0  0  0  0  0  0  0
   26.9109   25.8440   11.6967 H   0  0  0  0  0  0  0  0  0  0  0  0
   28.6444   26.0473   11.2074 H   0  0  0  0  0  0  0  0  0  0  0  0
   27.3237   24.5981    9.7791 H   0  0  0  0  0  0  0  0  0  0  0  0
   28.7210   23.8660   10.5296 H   0  0  0  0  0  0  0  0  0  0  0  0
   26.5342   22.5565   10.1468 H   0  0  0  0  0  0  0  0  0  0  0  0
   27.6427   22.3335   11.5708 H   0  0  0  0  0  0  0  0  0  0  0  0
   25.4150   24.3490   11.7001 H   0  0  0  0  0  0  0  0  0  0  0  0
   25.0907   22.5675   11.9396 H   0  0  0  0  0  0  0  0  0  0  0  0
   25.5213   24.0609   14.0040 H   0  0  0  0  0  0  0  0  0  0  0  0
   26.3803   22.4293   13.8001 H   0  0  0  0  0  0  0  0  0  0  0  0
  3  2  1  0
  3  1  1  0
  4  3  2  0
  6  5  1  0
  7  6  1  0
  7  2  1  0
  8  7  1  0
  9  5  1  0
  9  8  1  0
 10  9  2  0
 11  5  1  0
 13 11  1  0
 13 12  1  0
 14  1  1  0
 15 14  1  0
 16 15  2  0
 17 16  1  0
 18 17  1  0
 19 18  2  0
 19 15  1  0
 20 18  1  0
 21 20  1  0
 22 21  1  0
 23 22  1  0
 24 23  1  0
 24 17  1  0
  1 25  1  0
  1 26  1  0
  2 27  1  0
  6 28  1  0
  6 29  1  0
  7 30  1  6
  8 31  1  0
  8 32  1  0
 11 33  1  0
 11 34  1  0
 12 35  1  0
 12 36  1  0
 12 37  1  0
 13 38  1  0
 13 39  1  0
 14 40  1  0
 14 41  1  0
 19 42  1  0
 20 43  1  0
 20 44  1  0
 21 45  1  0
 21 46  1  0
 22 47  1  0
 22 48  1  0
 23 49  1  0
 23 50  1  0
 24 51  1  0
 24 52  1  0
M  CHG  1  21   1
M  END
$$$$
=
     RDKit          3D

 39 39  0  0  0  0  0  0  0  0999 V2000
   19.3810   16.5390    5.0810 N   0  0  0  0  0  0  0  0  0  0  0  0
   18.8500   15.7940    3.6290 S   0  0  0  0  0  6  0  0  0  0  0  0
   19.6980   14.6520    3.3830 O   0  0  0  0  0  0  0  0  0  0  0  0
   18.7770   16.8630    2.6470 O   0  0  0  0  0  0  0  0  0  0  0  0
   17.2010   15.2630    3.9820 C   0  0  0  0  0  0  0  0  0  0  0  0
   16.4680   15.9270    4.9720 C   0  0  0  0  0  0  0  0  0  0  0  0
   15.1680   15.5090    5.2530 C   0  0  0  0  0  0  0  0  0  0  0  0
   14.6130   14.4490    4.5390 C   0  0  0  0  0  0  0  0  0  0  0  0
   15.3280   13.7940    3.5310 C   0  0  0  0  0  0  0  0  0  0  0  0
   16.6390   14.2040    3.2580 C   0  0  0  0  0  0  0  0  0  0  0  0
   14.7080   12.6430    2.7960 C   0  0  0  0  0  0  0  0  0  0  0  0
   13.3660   14.0580    4.8330 F   0  0  0  0  0  0  0  0  0  0  0  0
   19.9780   14.6830    6.7100 C   0  0  0  0  0  0  0  0  0  0  0  0
   20.4630   15.8390    5.8540 C   0  0  0  0  0  0  0  0  0  0  0  0
   19.6360   18.0150    4.9380 C   0  0  0  0  0  0  0  0  0  0  0  0
   21.0580   18.3970    5.4110 C   0  0  2  0  0  0  0  0  0  0  0  0
   21.0480   19.5490    6.2790 O   0  0  0  0  0  0  0  0  0  0  0  0
   22.0680   18.6620    4.2780 C   0  0  0  0  0  0  0  0  0  0  0  0
   21.4650   18.2690    2.9820 N   0  0  0  0  0  4  0  0  0  0  0  0
   16.9126   16.7693    5.5223 H   0  0  0  0  0  0  0  0  0  0  0  0
   14.5827   16.0141    6.0354 H   0  0  0  0  0  0  0  0  0  0  0  0
   17.2251   13.6962    2.4779 H   0  0  0  0  0  0  0  0  0  0  0  0
   14.3154   11.9142    3.5203 H   0  0  0  0  0  0  0  0  0  0  0  0
   13.8862   13.0113    2.1643 H   0  0  0  0  0  0  0  0  0  0  0  0
   15.4677   12.1594    2.1643 H   0  0  0  0  0  0  0  0  0  0  0  0
   20.0871   14.9431    7.7732 H   0  0  0  0  0  0  0  0  0  0  0  0
   18.9195   14.4816    6.4885 H   0  0  0  0  0  0  0  0  0  0  0  0
   20.5759   13.7867    6.4885 H   0  0  0  0  0  0  0  0  0  0  0  0
   20.9458   16.5756    6.5130 H   0  0  0  0  0  0  0  0  0  0  0  0
   21.1513   15.4105    5.1106 H   0  0  0  0  0  0  0  0  0  0  0  0
   19.5246   18.2954    3.8802 H   0  0  0  0  0  0  0  0  0  0  0  0
   18.9095   18.5515    5.5660 H   0  0  0  0  0  0  0  0  0  0  0  0
   21.3932   17.5015    5.9548 H   0  0  0  0  0  0  0  0  0  0  0  0
   21.0506   19.2509    7.2230 H   0  0  0  0  0  0  0  0  0  0  0  0
   22.3225   19.7319    4.2554 H   0  0  0  0  0  0  0  0  0  0  0  0
   22.9808   18.0737    4.4531 H   0  0  0  0  0  0  0  0  0  0  0  0
   20.6141   17.7144    3.1533 H   0  0  0  0  0  0  0  0  0  0  0  0
   21.2218   19.1143    2.4461 H   0  0  0  0  0  0  0  0  0  0  0  0
   22.1402   17.7052    2.4461 H   0  0  0  0  0  0  0  0  0  0  0  0
  2  1  1  0
  3  2  2  0
  4  2  2  0
  5  2  1  0
  6  5  2  0
  7  6  1  0
  8  7  2  0
  9  8  1  0
 10  9  2  0
 10  5  1  0
 11  9  1  0
 12  8  1  0
 14 13  1  0
 14  1  1  0
 15  1  1  0
 16 15  1  0
 17 16  1  0
 18 16  1  0
 19 18  1  0
  6 20  1  0
  7 21  1  0
 10 22  1  0
 11 23  1  0
 11 24  1  0
 11 25  1  0
 13 26  1  0
 13 27  1  0
 13 28  1  0
 14 29  1  0
 14 30  1  0
 15 31  1  0
 15 32  1  0
 16 33  1  1
 17 34  1  0
 18 35  1  0
 18 36  1  0
 19 37  1  0
 19 38  1  0
 19 39  1  0
M  CHG  1  19   1
M  END
$$$$
=
     RDKit          3D

 23 24  0  0  0  0  0  0  0  0999 V2000
   19.2290   14.5780    3.5180 N   0  0  0  0  0  0  0  0  0  0  0  0
   17.8950   14.1730    3.4750 C   0  0  0  0  0  0  0  0  0  0  0  0
   17.7050   12.9350    3.0210 N   0  0  0  0  0  0  0  0  0  0  0  0
   16.4370   12.5470    2.9650 C   0  0  0  0  0  0  0  0  0  0  0  0
   15.3820   13.2730    3.3060 N   0  0  0  0  0  0  0  0  0  0  0  0
   15.6810   14.4810    3.7520 C   0  0  0  0  0  0  0  0  0  0  0  0
   16.9040   14.9800    3.8400 N   0  0  0  0  0  0  0  0  0  0  0  0
   14.6310   15.3000    4.1140 N   0  0  0  0  0  0  0  0  0  0  0  0
   22.4310   16.4820    6.4930 F   0  0  0  0  0  0  0  0  0  0  0  0
   21.5320   16.6620    5.5160 C   0  0  0  0  0  0  0  0  0  0  0  0
   21.3140   17.9370    5.0140 C   0  0  0  0  0  0  0  0  0  0  0  0
   20.3830   18.1120    3.9960 C   0  0  0  0  0  0  0  0  0  0  0  0
   19.6790   17.0090    3.4930 C   0  0  0  0  0  0  0  0  0  0  0  0
   19.8840   15.7190    3.9980 C   0  0  0  0  0  0  0  0  0  0  0  0
   20.8340   15.5640    5.0190 C   0  0  0  0  0  0  0  0  0  0  0  0
   19.8729   13.8871    3.1070 H   0  0  0  0  0  0  0  0  0  0  0  0
   16.2436   11.5270    2.6014 H   0  0  0  0  0  0  0  0  0  0  0  0
   14.8166   16.2497    4.4670 H   0  0  0  0  0  0  0  0  0  0  0  0
   13.6617   14.9616    4.0312 H   0  0  0  0  0  0  0  0  0  0  0  0
   21.8697   18.7972    5.4156 H   0  0  0  0  0  0  0  0  0  0  0  0
   20.1990   19.1158    3.5855 H   0  0  0  0  0  0  0  0  0  0  0  0
   18.9494   17.1601    2.6837 H   0  0  0  0  0  0  0  0  0  0  0  0
   21.0298   14.5634    5.4318 H   0  0  0  0  0  0  0  0  0  0  0  0
  2  1  1  0
  3  2  2  0
  4  3  1  0
  5  4  2  0
  6  5  1  0
  7  6  2  0
  7  2  1  0
  8  6  1  0
 10  9  1  0
 11 10  2  0
 12 11  1  0
 13 12  2  0
 14  1  1  0
 14 13  1  0
 15 14  2  0
 15 10  1  0
  1 16  1  0
  4 17  1  0
  8 18  1  0
  8 19  1  0
 11 20  1  0
 12 21  1  0
 13 22  1  0
 15 23  1  0
M  END
$$$$
=
     RDKit          3D

 28 28  0  0  0  0  0  0  0  0999 V2000
   17.7400   16.1580    5.5580 C   0  0  0  0  0  0  0  0  0  0  0  0
   16.6120   15.9350    6.3620 C   0  0  0  0  0  0  0  0  0  0  0  0
   15.4600   15.3380    5.8370 C   0  0  0  0  0  0  0  0  0  0  0  0
   15.4140   14.9070    4.5100 C   0  0  0  0  0  0  0  0  0  0  0  0
   16.5160   15.1530    3.6920 C   0  0  0  0  0  0  0  0  0  0  0  0
   17.6830   15.7280    4.2200 C   0  0  0  0  0  0  0  0  0  0  0  0
   18.8350   15.8590    3.2990 C   0  0  0  0  0  0  0  0  0  0  0  0
   19.6570   14.9590    3.2030 O   0  0  0  0  0  0  0  0  0  0  0  0
   18.9060   17.0640    2.6330 N   0  0  0  0  0  0  0  0  0  0  0  0
   20.0500   17.3840    1.8170 C   0  0  0  0  0  0  0  0  0  0  0  0
   14.2170   14.4380    3.9620 N   0  0  0  0  0  0  0  0  0  0  0  0
   18.9650   16.8380    6.1270 C   0  0  0  0  0  0  0  0  0  0  0  0
   20.5350   18.5130    5.5340 C   0  0  0  0  0  0  0  0  0  0  0  0
   19.1590   18.1540    5.5970 O   0  0  0  0  0  0  0  0  0  0  0  0
   16.6333   16.2337    7.4204 H   0  0  0  0  0  0  0  0  0  0  0  0
   14.5772   15.2064    6.4800 H   0  0  0  0  0  0  0  0  0  0  0  0
   16.4707   14.8944    2.6238 H   0  0  0  0  0  0  0  0  0  0  0  0
   18.1349   17.7413    2.7193 H   0  0  0  0  0  0  0  0  0  0  0  0
   20.9066   17.6236    2.4642 H   0  0  0  0  0  0  0  0  0  0  0  0
   20.3003   16.5214    1.1820 H   0  0  0  0  0  0  0  0  0  0  0  0
   19.8164   18.2513    1.1820 H   0  0  0  0  0  0  0  0  0  0  0  0
   14.1884   14.1211    2.9824 H   0  0  0  0  0  0  0  0  0  0  0  0
   13.3634   14.4092    4.5377 H   0  0  0  0  0  0  0  0  0  0  0  0
   18.8527   16.9107    7.2188 H   0  0  0  0  0  0  0  0  0  0  0  0
   19.8413   16.2339    5.8493 H   0  0  0  0  0  0  0  0  0  0  0  0
   20.9339   18.6171    6.5538 H   0  0  0  0  0  0  0  0  0  0  0  0
   21.0940   17.7306    4.9997 H   0  0  0  0  0  0  0  0  0  0  0  0
   20.6405   19.4687    4.9997 H   0  0  0  0  0  0  0  0  0  0  0  0
  2  1  2  0
  3  2  1  0
  4  3  2  0
  5  4  1  0
  6  5  2  0
  6  1  1  0
  7  6  1  0
  8  7  2  0
  9  7  1  0
 10  9  1  0
 11  4  1  0
 12  1  1  0
 14 13  1  0
 14 12  1  0
  2 15  1  0
  3 16  1  0
  5 17  1  0
  9 18  1  0
 10 19  1  0
 10 20  1  0
 10 21  1  0
 11 22  1  0
 11 23  1  0
 12 24  1  0
 12 25  1  0
 13 26  1  0
 13 27  1  0
 13 28  1  0
M  END
$$$$
=
     RDKit          3D

 49 51  0  0  0  0  0  0  0  0999 V2000
   28.2130   25.4150   15.4760 C   0  0  2  0  0  0  0  0  0  0  0  0
   29.3920   24.3920   15.4590 C   0  0  0  0  0  0  0  0  0  0  0  0
   29.1220   23.3170   14.4350 N   0  0  0  0  0  4  0  0  0  0  0  0
   29.0000   23.8570   13.0290 C   0  0  0  0  0  0  0  0  0  0  0  0
   28.2020   25.1850   13.0090 C   0  0  0  0  0  0  0  0  0  0  0  0
   27.4110   25.3570   14.2300 N   0  0  0  0  0  0  0  0  0  0  0  0
   26.2930   24.4990   14.2890 C   0  0  0  0  0  0  0  0  0  0  0  0
   26.3720   23.4570   14.9480 O   0  0  0  0  0  0  0  0  0  0  0  0
   27.7820   27.6370   16.6350 C   0  0  0  0  0  0  0  0  0  0  0  0
   28.1470   28.9520   16.9480 C   0  0  0  0  0  0  0  0  0  0  0  0
   29.3240   29.4990   16.4400 C   0  0  0  0  0  0  0  0  0  0  0  0
   30.1440   28.7400   15.6160 C   0  0  0  0  0  0  0  0  0  0  0  0
   29.7940   27.4250   15.3020 C   0  0  0  0  0  0  0  0  0  0  0  0
   28.6190   26.8450   15.8150 C   0  0  0  0  0  0  0  0  0  0  0  0
   25.3960   27.5140   16.6030 C   0  0  0  0  0  0  0  0  0  0  0  0
   26.6420   27.0300   17.0960 O   0  0  0  0  0  0  0  0  0  0  0  0
   25.1300   24.8480   13.4610 C   0  0  0  0  0  0  0  0  0  0  0  0
   24.3810   23.9310   12.8260 N   0  0  0  0  0  0  0  0  0  0  0  0
   23.4500   24.6500   12.1630 N   0  0  0  0  0  0  0  0  0  0  0  0
   23.5410   25.9970   12.3940 C   0  0  0  0  0  0  0  0  0  0  0  0
   24.6250   26.1530   13.2310 C   0  0  0  0  0  0  0  0  0  0  0  0
   22.6240   27.0050   11.8080 C   0  0  0  0  0  0  0  0  0  0  0  0
   22.4940   23.9520   11.3200 C   0  0  0  0  0  0  0  0  0  0  0  0
   21.3990   23.2820   12.1310 C   0  0  0  0  0  0  0  0  0  0  0  0
   27.5744   25.0916   16.3112 H   0  0  0  0  0  0  0  0  0  0  0  0
   30.3252   24.9147   15.2022 H   0  0  0  0  0  0  0  0  0  0  0  0
   29.4867   23.9307   16.4531 H   0  0  0  0  0  0  0  0  0  0  0  0
   29.8964   22.6384   14.4598 H   0  0  0  0  0  0  0  0  0  0  0  0
   28.2205   22.8813   14.6766 H   0  0  0  0  0  0  0  0  0  0  0  0
   30.0070   24.0368   12.6245 H   0  0  0  0  0  0  0  0  0  0  0  0
   28.4636   23.1177   12.4160 H   0  0  0  0  0  0  0  0  0  0  0  0
   28.9075   26.0242   12.9195 H   0  0  0  0  0  0  0  0  0  0  0  0
   27.5120   25.1590   12.1527 H   0  0  0  0  0  0  0  0  0  0  0  0
   27.5001   29.5578   17.5996 H   0  0  0  0  0  0  0  0  0  0  0  0
   29.6034   30.5326   16.6921 H   0  0  0  0  0  0  0  0  0  0  0  0
   31.0696   29.1745   15.2104 H   0  0  0  0  0  0  0  0  0  0  0  0
   30.4469   26.8334   14.6434 H   0  0  0  0  0  0  0  0  0  0  0  0
   24.7408   27.7685   17.4491 H   0  0  0  0  0  0  0  0  0  0  0  0
   25.5678   28.4108   15.9896 H   0  0  0  0  0  0  0  0  0  0  0  0
   24.9174   26.7364   15.9896 H   0  0  0  0  0  0  0  0  0  0  0  0
   25.0179   27.0966   13.6374 H   0  0  0  0  0  0  0  0  0  0  0  0
   22.1216   27.5572   12.6159 H   0  0  0  0  0  0  0  0  0  0  0  0
   23.1995   27.7070   11.1868 H   0  0  0  0  0  0  0  0  0  0  0  0
   21.8708   26.4982   11.1868 H   0  0  0  0  0  0  0  0  0  0  0  0
   22.0331   24.6760   10.6319 H   0  0  0  0  0  0  0  0  0  0  0  0
   23.0361   23.1682   10.7707 H   0  0  0  0  0  0  0  0  0  0  0  0
   21.6071   23.4093   13.2036 H   0  0  0  0  0  0  0  0  0  0  0  0
   20.4296   23.7418   11.8884 H   0  0  0  0  0  0  0  0  0  0  0  0
   21.3671   22.2095   11.8884 H   0  0  0  0  0  0  0  0  0  0  0  0
  2  1  1  0
  3  2  1  0
  4  3  1  0
  5  4  1  0
  6  5  1  0
  6  1  1  0
  7  6  1  0
  8  7  2  0
 10  9  2  0
 11 10  1  0
 12 11  2  0
 13 12  1  0
 14  1  1  0
 14 13  2  0
 14  9  1  0
 16 15  1  0
 16  9  1  0
 17  7  1  0
 18 17  2  0
 19 18  1  0
 20 19  1  0
 21 20  2  0
 21 17  1  0
 22 20  1  0
 23 19  1  0
 24 23  1  0
  1 25  1  1
  2 26  1  0
  2 27  1  0
  3 28  1  0
  3 29  1  0
  4 30  1  0
  4 31  1  0
  5 32  1  0
  5 33  1  0
 10 34  1  0
 11 35  1  0
 12 36  1  0
 13 37  1  0
 15 38  1  0
 15 39  1  0
 15 40  1  0
 21 41  1  0
 22 42  1  0
 22 43  1  0
 22 44  1  0
 23 45  1  0
 23 46  1  0
 24 47  1  0
 24 48  1  0
 24 49  1  0
M  CHG  1   3   1
M  END
$$$$
=
     RDKit          3D

 33 33  0  0  0  0  0  0  0  0999 V2000
   19.6900   15.3020    5.5770 C   0  0  0  0  0  0  0  0  0  0  0  0
   19.7380   15.0980    4.1800 C   0  0  0  0  0  0  0  0  0  0  0  0
   18.5370   15.1780    3.6140 N   0  0  0  0  0  0  0  0  0  0  0  0
   17.6930   15.3780    4.6420 N   0  0  0  0  0  0  0  0  0  0  0  0
   18.3450   15.4840    5.8430 C   0  0  0  0  0  0  0  0  0  0  0  0
   16.2520   15.4690    4.4120 C   0  0  0  0  0  0  0  0  0  0  0  0
   15.7840   14.4420    3.3830 C   0  0  0  0  0  0  0  0  0  0  0  0
   15.4690   15.3490    5.7190 C   0  0  0  0  0  0  0  0  0  0  0  0
   20.8290   15.3160    6.5180 C   0  0  0  0  0  0  0  0  0  0  0  0
   22.0370   15.8800    5.8470 N   0  0  0  0  0  4  0  0  0  0  0  0
   22.2890   17.3350    6.0480 C   0  0  0  0  0  0  0  0  0  0  0  0
   21.6140   18.2700    3.8190 C   0  0  0  0  0  0  0  0  0  0  0  0
   22.7760   17.9810    4.7580 C   0  0  0  0  0  0  0  0  0  0  0  0
   20.6646   14.8957    3.6228 H   0  0  0  0  0  0  0  0  0  0  0  0
   17.8884   15.6760    6.8251 H   0  0  0  0  0  0  0  0  0  0  0  0
   16.0473   16.4667    3.9964 H   0  0  0  0  0  0  0  0  0  0  0  0
   15.3819   13.5596    3.9023 H   0  0  0  0  0  0  0  0  0  0  0  0
   14.9992   14.8858    2.7528 H   0  0  0  0  0  0  0  0  0  0  0  0
   16.6338   14.1409    2.7528 H   0  0  0  0  0  0  0  0  0  0  0  0
   16.1578   15.4546    6.5701 H   0  0  0  0  0  0  0  0  0  0  0  0
   14.7067   16.1408    5.7638 H   0  0  0  0  0  0  0  0  0  0  0  0
   14.9789   14.3653    5.7638 H   0  0  0  0  0  0  0  0  0  0  0  0
   20.5737   15.9358    7.3901 H   0  0  0  0  0  0  0  0  0  0  0  0
   21.0428   14.2869    6.8423 H   0  0  0  0  0  0  0  0  0  0  0  0
   22.8586   15.3682    6.1992 H   0  0  0  0  0  0  0  0  0  0  0  0
   21.8655   15.7693    4.8374 H   0  0  0  0  0  0  0  0  0  0  0  0
   21.3555   17.8225    6.3657 H   0  0  0  0  0  0  0  0  0  0  0  0
   23.0647   17.4561    6.8185 H   0  0  0  0  0  0  0  0  0  0  0  0
   20.7130   18.4941    4.4088 H   0  0  0  0  0  0  0  0  0  0  0  0
   21.8613   19.1340    3.1847 H   0  0  0  0  0  0  0  0  0  0  0  0
   21.4278   17.3908    3.1847 H   0  0  0  0  0  0  0  0  0  0  0  0
   23.4809   17.2999    4.2587 H   0  0  0  0  0  0  0  0  0  0  0  0
   23.2693   18.9320    5.0074 H   0  0  0  0  0  0  0  0  0  0  0  0
  2  1  1  0
  3  2  2  0
  4  3  1  0
  5  4  1  0
  5  1  2  0
  6  4  1  0
  7  6  1  0
  8  6  1  0
  9  1  1  0
 10  9  1  0
 11 10  1  0
 13 12  1  0
 13 11  1  0
  2 14  1  0
  5 15  1  0
  6 16  1  0
  7 17  1  0
  7 18  1  0
  7 19  1  0
  8 20  1  0
  8 21  1  0
  8 22  1  0
  9 23  1  0
  9 24  1  0
 10 25  1  0
 10 26  1  0
 11 27  1  0
 11 28  1  0
 12 29  1  0
 12 30  1  0
 12 31  1  0
 13 32  1  0
 13 33  1  0
M  CHG  1  10   1
M  END
$$$$
=
     RDKit          3D

 39 39  0  0  0  0  0  0  0  0999 V2000
   16.9660   15.1070    4.1690 C   0  0  0  0  0  0  0  0  0  0  0  0
   17.1910   16.1190    5.1140 C   0  0  0  0  0  0  0  0  0  0  0  0
   18.4750   16.3820    5.6010 C   0  0  0  0  0  0  0  0  0  0  0  0
   19.5450   15.6040    5.1650 C   0  0  0  0  0  0  0  0  0  0  0  0
   19.3500   14.5690    4.2500 C   0  0  0  0  0  0  0  0  0  0  0  0
   18.0710   14.3190    3.7440 C   0  0  0  0  0  0  0  0  0  0  0  0
   17.8730   13.1600    2.9710 N   0  0  0  0  0  0  0  0  0  0  0  0
   21.1780   15.8940    5.7910 S   0  0  0  0  0  6  0  0  0  0  0  0
   21.1180   15.7240    7.2280 O   0  0  0  0  0  0  0  0  0  0  0  0
   22.1200   15.1420    4.9870 O   0  0  0  0  0  0  0  0  0  0  0  0
   21.4330   17.5520    5.4530 N   0  0  0  0  0  0  0  0  0  0  0  0
   21.1420   17.9580    4.0580 C   0  0  0  0  0  0  0  0  0  0  0  0
   22.7660   18.0290    5.8890 C   0  0  0  0  0  0  0  0  0  0  0  0
   15.6860   14.7990    3.6600 N   0  0  0  0  0  0  0  0  0  0  0  0
   14.4970   15.3730    4.2810 C   0  0  0  0  0  0  0  0  0  0  0  0
   13.4080   14.2990    4.3630 C   0  0  0  0  0  0  0  0  0  0  0  0
   12.4490   12.5520    2.7710 C   0  0  0  0  0  0  0  0  0  0  0  0
   13.6860   13.0840    3.4770 C   0  0  0  0  0  0  0  0  0  0  0  0
   16.3422   16.7163    5.4784 H   0  0  0  0  0  0  0  0  0  0  0  0
   18.6388   17.1963    6.3222 H   0  0  0  0  0  0  0  0  0  0  0  0
   20.2009   13.9510    3.9274 H   0  0  0  0  0  0  0  0  0  0  0  0
   16.9410   12.9510    2.5856 H   0  0  0  0  0  0  0  0  0  0  0  0
   18.6601   12.5206    2.7905 H   0  0  0  0  0  0  0  0  0  0  0  0
   20.5012   18.8521    4.0624 H   0  0  0  0  0  0  0  0  0  0  0  0
   22.0844   18.1849    3.5380 H   0  0  0  0  0  0  0  0  0  0  0  0
   20.6244   17.1384    3.5380 H   0  0  0  0  0  0  0  0  0  0  0  0
   22.8085   18.0442    6.9881 H   0  0  0  0  0  0  0  0  0  0  0  0
   23.5422   17.3529    5.5013 H   0  0  0  0  0  0  0  0  0  0  0  0
   22.9370   19.0441    5.5013 H   0  0  0  0  0  0  0  0  0  0  0  0
   15.5914   14.1693    2.8505 H   0  0  0  0  0  0  0  0  0  0  0  0
   14.7437   15.7258    5.2933 H   0  0  0  0  0  0  0  0  0  0  0  0
   14.1372   16.2213    3.6801 H   0  0  0  0  0  0  0  0  0  0  0  0
   13.3309   13.9594    5.4064 H   0  0  0  0  0  0  0  0  0  0  0  0
   12.4737   14.7556    4.0045 H   0  0  0  0  0  0  0  0  0  0  0  0
   11.7083   12.2334    3.5192 H   0  0  0  0  0  0  0  0  0  0  0  0
   12.0170   13.3439    2.1415 H   0  0  0  0  0  0  0  0  0  0  0  0
   12.7267   11.6938    2.1415 H   0  0  0  0  0  0  0  0  0  0  0  0
   14.0999   12.2820    4.1059 H   0  0  0  0  0  0  0  0  0  0  0  0
   14.3900   13.4075    2.6961 H   0  0  0  0  0  0  0  0  0  0  0  0
  2  1  2  0
  3  2  1  0
  4  3  2  0
  5  4  1  0
  6  5  2  0
  6  1  1  0
  7  6  1  0
  8  4  1  0
  9  8  2  0
 10  8  2  0
 11  8  1  0
 12 11  1  0
 13 11  1  0
 14  1  1  0
 15 14  1  0
 16 15  1  0
 18 17  1  0
 18 16  1  0
  2 19  1  0
  3 20  1  0
  5 21  1  0
  7 22  1  0
  7 23  1  0
 12 24  1  0
 12 25  1  0
 12 26  1  0
 13 27  1  0
 13 28  1  0
 13 29  1  0
 14 30  1  0
 15 31  1  0
 15 32  1  0
 16 33  1  0
 16 34  1  0
 17 35  1  0
 17 36  1  0
 17 37  1  0
 18 38  1  0
 18 39  1  0
M  END
$$$$
=
     RDKit          3D

 27 28  0  0  0  0  0  0  0  0999 V2000
   18.5320   14.6700    3.4540 C   0  0  1  0  0  0  0  0  0  0  0  0
   13.8510   13.2310    3.2440 F   0  0  0  0  0  0  0  0  0  0  0  0
   14.7630   14.0890    3.7140 C   0  0  0  0  0  0  0  0  0  0  0  0
   14.3640   15.1350    4.5350 C   0  0  0  0  0  0  0  0  0  0  0  0
   15.3180   16.0280    5.0170 C   0  0  0  0  0  0  0  0  0  0  0  0
   16.6640   15.8710    4.6740 C   0  0  0  0  0  0  0  0  0  0  0  0
   17.0750   14.8110    3.8450 C   0  0  0  0  0  0  0  0  0  0  0  0
   16.0990   13.9200    3.3640 C   0  0  0  0  0  0  0  0  0  0  0  0
   19.5120   15.1420    4.5210 C   0  0  0  0  0  0  0  0  0  0  0  0
   19.5890   14.5270    5.7660 C   0  0  0  0  0  0  0  0  0  0  0  0
   20.5180   15.0070    6.6840 C   0  0  0  0  0  0  0  0  0  0  0  0
   21.3360   16.0760    6.3380 C   0  0  0  0  0  0  0  0  0  0  0  0
   21.1970   16.6330    5.0790 C   0  0  0  0  0  0  0  0  0  0  0  0
   20.3040   16.1960    4.1590 N   0  0  0  0  0  0  0  0  0  0  0  0
   18.8260   13.2440    3.1140 N   0  0  0  0  0  4  0  0  0  0  0  0
   18.6771   15.3263    2.5832 H   0  0  0  0  0  0  0  0  0  0  0  0
   13.3040   15.2574    4.8024 H   0  0  0  0  0  0  0  0  0  0  0  0
   15.0115   16.8590    5.6693 H   0  0  0  0  0  0  0  0  0  0  0  0
   17.4097   16.5836    5.0562 H   0  0  0  0  0  0  0  0  0  0  0  0
   16.3928   13.0867    2.7089 H   0  0  0  0  0  0  0  0  0  0  0  0
   18.9317   13.6820    6.0188 H   0  0  0  0  0  0  0  0  0  0  0  0
   20.6045   14.5431    7.6777 H   0  0  0  0  0  0  0  0  0  0  0  0
   22.0771   16.4703    7.0489 H   0  0  0  0  0  0  0  0  0  0  0  0
   21.8481   17.4779    4.8102 H   0  0  0  0  0  0  0  0  0  0  0  0
   18.9381   12.7003    3.9816 H   0  0  0  0  0  0  0  0  0  0  0  0
   18.0475   12.8549    2.5631 H   0  0  0  0  0  0  0  0  0  0  0  0
   19.6949   13.1945    2.5631 H   0  0  0  0  0  0  0  0  0  0  0  0
  3  2  1  0
  4  3  2  0
  5  4  1  0
  6  5  2  0
  7  6  1  0
  7  1  1  0
  8  3  1  0
  8  7  2  0
  9  1  1  0
 10  9  2  0
 11 10  1  0
 12 11  2  0
 13 12  1  0
 14  9  1  0
 14 13  2  0
 15  1  1  0
  1 16  1  6
  4 17  1  0
  5 18  1  0
  6 19  1  0
  8 20  1  0
 10 21  1  0
 11 22  1  0
 12 23  1  0
 13 24  1  0
 15 25  1  0
 15 26  1  0
 15 27  1  0
M  CHG  1  15   1
M  END
$$$$
=
     RDKit          3D

 36 37  0  0  0  0  0  0  0  0999 V2000
   21.1210   17.3180    6.5100 F   0  0  0  0  0  0  0  0  0  0  0  0
   21.8930   16.7260    5.5440 C   0  0  2  0  0  0  0  0  0  0  0  0
   21.9570   17.7300    4.3870 C   0  0  0  0  0  0  0  0  0  0  0  0
   20.5650   17.9500    3.7650 C   0  0  1  0  0  0  0  0  0  0  0  0
   19.9590   16.5890    3.3550 C   0  0  0  0  0  0  0  0  0  0  0  0
   19.9130   15.6990    4.5150 N   0  0  0  0  0  0  0  0  0  0  0  0
   21.2180   15.4120    5.1240 C   0  0  0  0  0  0  0  0  0  0  0  0
   18.7740   15.5540    5.2950 C   0  0  0  0  0  0  0  0  0  0  0  0
   18.7760   15.0740    6.4180 O   0  0  0  0  0  0  0  0  0  0  0  0
   19.6900   18.6240    4.7770 N   0  0  0  0  0  4  0  0  0  0  0  0
   17.6910   16.1200    4.7060 O   0  0  0  0  0  0  0  0  0  0  0  0
   16.4460   15.9830    5.4070 C   0  0  0  0  0  0  0  0  0  0  0  0
   15.6240   15.0190    4.5900 C   0  0  0  0  0  0  0  0  0  0  0  0
   14.2880   14.7570    4.9270 C   0  0  0  0  0  0  0  0  0  0  0  0
   13.5560   13.8020    4.2200 C   0  0  0  0  0  0  0  0  0  0  0  0
   14.1520   13.1000    3.1740 C   0  0  0  0  0  0  0  0  0  0  0  0
   15.4790   13.3530    2.8290 C   0  0  0  0  0  0  0  0  0  0  0  0
   16.2130   14.3060    3.5340 C   0  0  0  0  0  0  0  0  0  0  0  0
   22.9094   16.4816    5.8862 H   0  0  0  0  0  0  0  0  0  0  0  0
   22.3371   18.6904    4.7655 H   0  0  0  0  0  0  0  0  0  0  0  0
   22.6259   17.3274    3.6121 H   0  0  0  0  0  0  0  0  0  0  0  0
   20.6450   18.5820    2.8682 H   0  0  0  0  0  0  0  0  0  0  0  0
   18.9394   16.7434    2.9722 H   0  0  0  0  0  0  0  0  0  0  0  0
   20.5832   16.1340    2.5719 H   0  0  0  0  0  0  0  0  0  0  0  0
   21.0762   14.7745    6.0091 H   0  0  0  0  0  0  0  0  0  0  0  0
   21.8550   14.8925    4.3930 H   0  0  0  0  0  0  0  0  0  0  0  0
   20.0092   18.3781    5.7249 H   0  0  0  0  0  0  0  0  0  0  0  0
   19.7428   19.6449    4.6509 H   0  0  0  0  0  0  0  0  0  0  0  0
   18.7164   18.3124    4.6509 H   0  0  0  0  0  0  0  0  0  0  0  0
   16.6163   15.5820    6.4171 H   0  0  0  0  0  0  0  0  0  0  0  0
   15.9378   16.9512    5.5265 H   0  0  0  0  0  0  0  0  0  0  0  0
   13.8144   15.3074    5.7533 H   0  0  0  0  0  0  0  0  0  0  0  0
   12.5080   13.6033    4.4885 H   0  0  0  0  0  0  0  0  0  0  0  0
   13.5747   12.3453    2.6198 H   0  0  0  0  0  0  0  0  0  0  0  0
   15.9468   12.8008    2.0006 H   0  0  0  0  0  0  0  0  0  0  0  0
   17.2607   14.5004    3.2609 H   0  0  0  0  0  0  0  0  0  0  0  0
  2  1  1  0
  3  2  1  0
  4  3  1  0
  5  4  1  0
  6  5  1  0
  7  6  1  0
  7  2  1  0
  8  6  1  0
  9  8  2  0
 10  4  1  0
 11  8  1  0
 12 11  1  0
 13 12  1  0
 14 13  2  0
 15 14  1  0
 16 15  2  0
 17 16  1  0
 18 17  2  0
 18 13  1  0
  2 19  1  1
  3 20  1  0
  3 21  1  0
  4 22  1  6
  5 23  1  0
  5 24  1  0
  7 25  1  0
  7 26  1  0
 10 27  1  0
 10 28  1  0
 10 29  1  0
 12 30  1  0
 12 31  1  0
 14 32  1  0
 15 33  1  0
 16 34  1  0
 17 35  1  0
 18 36  1  0
M  CHG  1  10   1
M  END
$$$$
=
     RDKit          3D

 24 25  0  0  0  0  0  0  0  0999 V2000
   16.3070   13.8790    3.4770 N   0  0  0  0  0  0  0  0  0  0  0  0
   16.5850   12.7580    2.7500 C   0  0  0  0  0  0  0  0  0  0  0  0
   15.4890   12.1140    2.4300 N   0  0  0  0  0  0  0  0  0  0  0  0
   14.4640   12.8180    3.0110 C   0  0  0  0  0  0  0  0  0  0  0  0
   14.9510   13.9360    3.6870 C   0  0  0  0  0  0  0  0  0  0  0  0
   14.1150   14.8270    4.3720 C   0  0  0  0  0  0  0  0  0  0  0  0
   12.7420   14.5500    4.3520 C   0  0  0  0  0  0  0  0  0  0  0  0
   12.2330   13.4400    3.6770 C   0  0  0  0  0  0  0  0  0  0  0  0
   13.0860   12.5610    3.0000 C   0  0  0  0  0  0  0  0  0  0  0  0
   17.2800   14.8690    3.8850 C   0  0  0  0  0  0  0  0  0  0  0  0
   18.6840   14.2700    3.8990 C   0  0  0  0  0  0  0  0  0  0  0  0
   19.7050   15.2780    3.4920 N   0  0  0  0  0  4  0  0  0  0  0  0
   17.5986   12.4362    2.4687 H   0  0  0  0  0  0  0  0  0  0  0  0
   14.5178   15.7033    4.9009 H   0  0  0  0  0  0  0  0  0  0  0  0
   12.0499   15.2224    4.8801 H   0  0  0  0  0  0  0  0  0  0  0  0
   11.1489   13.2537    3.6770 H   0  0  0  0  0  0  0  0  0  0  0  0
   12.6830   11.6856    2.4696 H   0  0  0  0  0  0  0  0  0  0  0  0
   17.2542   15.7129    3.1799 H   0  0  0  0  0  0  0  0  0  0  0  0
   17.0314   15.2127    4.8999 H   0  0  0  0  0  0  0  0  0  0  0  0
   18.9134   13.9173    4.9154 H   0  0  0  0  0  0  0  0  0  0  0  0
   18.7137   13.4357    3.1827 H   0  0  0  0  0  0  0  0  0  0  0  0
   20.1286   15.6962    4.3325 H   0  0  0  0  0  0  0  0  0  0  0  0
   20.4366   14.8185    2.9312 H   0  0  0  0  0  0  0  0  0  0  0  0
   19.2549   16.0154    2.9312 H   0  0  0  0  0  0  0  0  0  0  0  0
  2  1  1  0
  3  2  2  0
  4  3  1  0
  5  4  2  0
  5  1  1  0
  6  5  1  0
  7  6  2  0
  8  7  1  0
  9  8  2  0
  9  4  1  0
 10  1  1  0
 11 10  1  0
 12 11  1  0
  2 13  1  0
  6 14  1  0
  7 15  1  0
  8 16  1  0
  9 17  1  0
 10 18  1  0
 10 19  1  0
 11 20  1  0
 11 21  1  0
 12 22  1  0
 12 23  1  0
 12 24  1  0
M  CHG  1  12   1
M  END
$$$$
=
     RDKit          3D

 44 44  0  0  0  0  0  0  0  0999 V2000
   16.1650   13.2200    3.0790 C   0  0  0  0  0  0  0  0  0  0  0  0
   17.4960   12.7930    2.9770 C   0  0  0  0  0  0  0  0  0  0  0  0
   18.5310   13.6010    3.4520 C   0  0  0  0  0  0  0  0  0  0  0  0
   18.2570   14.8480    4.0220 C   0  0  0  0  0  0  0  0  0  0  0  0
   16.9320   15.2590    4.1830 C   0  0  0  0  0  0  0  0  0  0  0  0
   15.8980   14.4550    3.6870 C   0  0  0  0  0  0  0  0  0  0  0  0
   15.0410   12.3830    2.5390 C   0  0  0  0  0  0  0  0  0  0  0  0
   13.9930   12.0860    3.5640 N   0  0  0  0  0  4  0  0  0  0  0  0
   12.2410   13.7690    3.8600 C   0  0  0  0  0  0  0  0  0  0  0  0
   12.6000   12.4640    3.1800 C   0  0  0  0  0  0  0  0  0  0  0  0
   16.5020   16.4330    4.7400 O   0  0  0  0  0  0  0  0  0  0  0  0
   16.8780   16.6400    6.1060 C   0  0  0  0  0  0  0  0  0  0  0  0
   16.3030   15.4950    6.9220 C   0  0  0  0  0  0  0  0  0  0  0  0
   19.2850   15.6280    4.4760 O   0  0  0  0  0  0  0  0  0  0  0  0
   20.3270   14.8890    5.1440 C   0  0  2  0  0  0  0  0  0  0  0  0
   19.9020   14.7360    6.6010 C   0  0  0  0  0  0  0  0  0  0  0  0
   21.6300   15.6890    4.9940 C   0  0  0  0  0  0  0  0  0  0  0  0
   21.9180   16.6130    6.1660 C   0  0  0  0  0  0  0  0  0  0  0  0
   17.7259   11.8185    2.5214 H   0  0  0  0  0  0  0  0  0  0  0  0
   19.5719   13.2532    3.3771 H   0  0  0  0  0  0  0  0  0  0  0  0
   14.8569   14.7988    3.7761 H   0  0  0  0  0  0  0  0  0  0  0  0
   14.5717   12.9225    1.7031 H   0  0  0  0  0  0  0  0  0  0  0  0
   15.4696   11.4225    2.2167 H   0  0  0  0  0  0  0  0  0  0  0  0
   14.0080   11.0731    3.7504 H   0  0  0  0  0  0  0  0  0  0  0  0
   14.2277   12.6602    4.3863 H   0  0  0  0  0  0  0  0  0  0  0  0
   12.2776   13.6360    4.9513 H   0  0  0  0  0  0  0  0  0  0  0  0
   12.9583   14.5476    3.5613 H   0  0  0  0  0  0  0  0  0  0  0  0
   11.2264   14.0711    3.5613 H   0  0  0  0  0  0  0  0  0  0  0  0
   11.9020   11.6764    3.5003 H   0  0  0  0  0  0  0  0  0  0  0  0
   12.5331   12.5817    2.0884 H   0  0  0  0  0  0  0  0  0  0  0  0
   17.9743   16.6501    6.1954 H   0  0  0  0  0  0  0  0  0  0  0  0
   16.4926   17.6039    6.4698 H   0  0  0  0  0  0  0  0  0  0  0  0
   16.4142   15.7165    7.9937 H   0  0  0  0  0  0  0  0  0  0  0  0
   15.2366   15.3728    6.6816 H   0  0  0  0  0  0  0  0  0  0  0  0
   16.8418   14.5666    6.6816 H   0  0  0  0  0  0  0  0  0  0  0  0
   20.4916   13.8871    4.7208 H   0  0  0  0  0  0  0  0  0  0  0  0
   20.7319   15.0348    7.2583 H   0  0  0  0  0  0  0  0  0  0  0  0
   19.0296   15.3765    6.7977 H   0  0  0  0  0  0  0  0  0  0  0  0
   19.6380   13.6864    6.7977 H   0  0  0  0  0  0  0  0  0  0  0  0
   22.4645   14.9788    4.8985 H   0  0  0  0  0  0  0  0  0  0  0  0
   21.5161   16.3249    4.1037 H   0  0  0  0  0  0  0  0  0  0  0  0
   21.7495   16.0725    7.1091 H   0  0  0  0  0  0  0  0  0  0  0  0
   22.9639   16.9504    6.1185 H   0  0  0  0  0  0  0  0  0  0  0  0
   21.2490   17.4849    6.1185 H   0  0  0  0  0  0  0  0  0  0  0  0
  2  1  2  0
  3  2  1  0
  4  3  2  0
  5  4  1  0
  6  1  1  0
  6  5  2  0
  7  1  1  0
  8  7  1  0
 10  9  1  0
 10  8  1  0
 11  5  1  0
 12 11  1  0
 13 12  1  0
 14  4  1  0
 15 14  1  0
 16 15  1  0
 17 15  1  0
 18 17  1  0
  2 19  1  0
  3 20  1  0
  6 21  1  0
  7 22  1  0
  7 23  1  0
  8 24  1  0
  8 25  1  0
  9 26  1  0
  9 27  1  0
  9 28  1  0
 10 29  1  0
 10 30  1  0
 12 31  1  0
 12 32  1  0
 13 33  1  0
 13 34  1  0
 13 35  1  0
 15 36  1  6
 16 37  1  0
 16 38  1  0
 16 39  1  0
 17 40  1  0
 17 41  1  0
 18 42  1  0
 18 43  1  0
 18 44  1  0
M  CHG  1   8   1
M  END
$$$$
=
     RDKit          3D

 27 27  0  0  0  0  0  0  0  0999 V2000
   20.8530   16.4320    6.0380 C   0  0  2  0  0  0  0  0  0  0  0  0
   20.4950   15.0900    6.6190 C   0  0  0  0  0  0  0  0  0  0  0  0
   20.6020   15.2410    5.1250 C   0  0  1  0  0  0  0  0  0  0  0  0
   19.4650   15.3870    4.1920 C   0  0  0  0  0  0  0  0  0  0  0  0
   19.6620   15.8620    3.0840 O   0  0  0  0  0  0  0  0  0  0  0  0
   18.3070   14.9360    4.7180 O   0  0  0  0  0  0  0  0  0  0  0  0
   17.2360   15.8910    4.7840 C   0  0  0  0  0  0  0  0  0  0  0  0
   16.8860   16.1830    6.2300 C   0  0  0  0  0  0  0  0  0  0  0  0
   22.2150   17.0280    6.0430 C   0  0  0  0  0  0  0  0  0  0  0  0
   22.0440   18.7340    4.2120 C   0  0  0  0  0  0  0  0  0  0  0  0
   22.1640   18.4720    5.6680 N   0  0  0  0  0  4  0  0  0  0  0  0
   20.4464   17.4404    6.2049 H   0  0  0  0  0  0  0  0  0  0  0  0
   21.2525   14.5103    7.1669 H   0  0  0  0  0  0  0  0  0  0  0  0
   19.7164   14.7273    7.3061 H   0  0  0  0  0  0  0  0  0  0  0  0
   21.1286   14.6319    4.3755 H   0  0  0  0  0  0  0  0  0  0  0  0
   17.5486   16.8229    4.2901 H   0  0  0  0  0  0  0  0  0  0  0  0
   16.3525   15.4764    4.2766 H   0  0  0  0  0  0  0  0  0  0  0  0
   17.5609   15.6200    6.8915 H   0  0  0  0  0  0  0  0  0  0  0  0
   16.9970   17.2601    6.4238 H   0  0  0  0  0  0  0  0  0  0  0  0
   15.8462   15.8808    6.4238 H   0  0  0  0  0  0  0  0  0  0  0  0
   22.6467   16.9322    7.0502 H   0  0  0  0  0  0  0  0  0  0  0  0
   22.8355   16.4948    5.3077 H   0  0  0  0  0  0  0  0  0  0  0  0
   21.5907   19.7237    4.0537 H   0  0  0  0  0  0  0  0  0  0  0  0
   23.0427   18.7102    3.7516 H   0  0  0  0  0  0  0  0  0  0  0  0
   21.4096   17.9622    3.7516 H   0  0  0  0  0  0  0  0  0  0  0  0
   23.0280   18.9209    6.0040 H   0  0  0  0  0  0  0  0  0  0  0  0
   21.3117   18.8540    6.1022 H   0  0  0  0  0  0  0  0  0  0  0  0
  2  1  1  0
  3  2  1  0
  3  1  1  0
  4  3  1  0
  5  4  2  0
  6  4  1  0
  7  6  1  0
  8  7  1  0
  9  1  1  0
 11 10  1  0
 11  9  1  0
  1 12  1  6
  2 13  1  0
  2 14  1  0
  3 15  1  6
  7 16  1  0
  7 17  1  0
  8 18  1  0
  8 19  1  0
  8 20  1  0
  9 21  1  0
  9 22  1  0
 10 23  1  0
 10 24  1  0
 10 25  1  0
 11 26  1  0
 11 27  1  0
M  CHG  1  11   1
M  END
$$$$
=
     RDKit          3D

 60 63  0  0  0  0  0  0  0  0999 V2000
   15.0000   13.7450    3.5130 C   0  0  0  0  0  0  0  0  0  0  0  0
   14.4980   14.9490    4.0270 C   0  0  0  0  0  0  0  0  0  0  0  0
   13.1290   15.0970    4.2630 C   0  0  0  0  0  0  0  0  0  0  0  0
   12.2420   14.0440    4.0110 C   0  0  0  0  0  0  0  0  0  0  0  0
   12.7330   12.8440    3.4890 C   0  0  0  0  0  0  0  0  0  0  0  0
   14.1020   12.7050    3.2310 C   0  0  0  0  0  0  0  0  0  0  0  0
   11.9700   11.7680    3.1290 O   0  0  0  0  0  0  0  0  0  0  0  0
   11.0430   12.0370    2.0750 C   0  0  0  0  0  0  0  0  0  0  0  0
   16.4610   13.5870    3.2140 C   0  0  0  0  0  0  0  0  0  0  0  0
   17.2230   14.8030    3.6970 N   0  0  0  0  0  4  0  0  0  0  0  0
   18.6920   14.5440    3.8780 C   0  0  0  0  0  0  0  0  0  0  0  0
   20.4140   16.4600    4.2910 N   0  0  1  0  0  4  0  0  0  0  0  0
   21.4360   16.7840    5.4010 C   0  0  0  0  0  0  0  0  0  0  0  0
   21.0320   15.9040    6.5720 C   0  0  0  0  0  0  0  0  0  0  0  0
   20.2570   14.7590    5.9430 C   0  0  0  0  0  0  0  0  0  0  0  0
   19.4080   15.4740    4.8990 C   0  0  2  0  0  0  0  0  0  0  0  0
   19.6530   17.5230    2.1110 C   0  0  0  0  0  0  0  0  0  0  0  0
   19.8580   17.6970    3.6040 C   0  0  0  0  0  0  0  0  0  0  0  0
   10.8890   14.2080    4.1840 O   0  0  0  0  0  0  0  0  0  0  0  0
   10.3070   13.8130    5.3190 C   0  0  0  0  0  0  0  0  0  0  0  0
   10.9100   13.6660    6.4790 N   0  0  0  0  0  0  0  0  0  0  0  0
    9.9490   13.2500    7.3530 N   0  0  0  0  0  0  0  0  0  0  0  0
    8.7760   13.1290    6.7510 N   0  0  0  0  0  0  0  0  0  0  0  0
    8.9710   13.4640    5.4490 N   0  0  0  0  0  0  0  0  0  0  0  0
    7.9110   13.4220    4.5060 C   0  0  0  0  0  0  0  0  0  0  0  0
    7.3430   14.5880    3.9740 C   0  0  0  0  0  0  0  0  0  0  0  0
    6.3020   14.5000    3.0430 C   0  0  0  0  0  0  0  0  0  0  0  0
    5.8220   13.2560    2.6380 C   0  0  0  0  0  0  0  0  0  0  0  0
    6.3800   12.0930    3.1600 C   0  0  0  0  0  0  0  0  0  0  0  0
    7.4200   12.1730    4.0890 C   0  0  0  0  0  0  0  0  0  0  0  0
   15.1846   15.7802    4.2453 H   0  0  0  0  0  0  0  0  0  0  0  0
   12.7440   16.0515    4.6511 H   0  0  0  0  0  0  0  0  0  0  0  0
   14.4792   11.7657    2.8005 H   0  0  0  0  0  0  0  0  0  0  0  0
   10.0706   12.3192    2.5050 H   0  0  0  0  0  0  0  0  0  0  0  0
   11.4227   12.8620    1.4544 H   0  0  0  0  0  0  0  0  0  0  0  0
   10.9221   11.1369    1.4544 H   0  0  0  0  0  0  0  0  0  0  0  0
   16.8427   12.6911    3.7255 H   0  0  0  0  0  0  0  0  0  0  0  0
   16.5980   13.4832    2.1275 H   0  0  0  0  0  0  0  0  0  0  0  0
   17.1059   15.5587    3.0070 H   0  0  0  0  0  0  0  0  0  0  0  0
   16.8404   15.0595    4.6183 H   0  0  0  0  0  0  0  0  0  0  0  0
   18.8149   13.5055    4.2193 H   0  0  0  0  0  0  0  0  0  0  0  0
   19.1596   14.7444    2.9027 H   0  0  0  0  0  0  0  0  0  0  0  0
   20.8516   15.9958    3.4823 H   0  0  0  0  0  0  0  0  0  0  0  0
   22.4569   16.5430    5.0697 H   0  0  0  0  0  0  0  0  0  0  0  0
   21.4361   17.8517    5.6656 H   0  0  0  0  0  0  0  0  0  0  0  0
   21.9209   15.5275    7.0994 H   0  0  0  0  0  0  0  0  0  0  0  0
   20.4360   16.4505    7.3177 H   0  0  0  0  0  0  0  0  0  0  0  0
   20.9343   14.0301    5.4740 H   0  0  0  0  0  0  0  0  0  0  0  0
   19.6668   14.1775    6.6666 H   0  0  0  0  0  0  0  0  0  0  0  0
   18.5263   15.9712    5.3295 H   0  0  0  0  0  0  0  0  0  0  0  0
   18.8253   16.8205    1.9340 H   0  0  0  0  0  0  0  0  0  0  0  0
   19.4113   18.4959    1.6582 H   0  0  0  0  0  0  0  0  0  0  0  0
   20.5737   17.1264    1.6582 H   0  0  0  0  0  0  0  0  0  0  0  0
   20.5601   18.5286    3.7639 H   0  0  0  0  0  0  0  0  0  0  0  0
   18.8692   17.8932    4.0443 H   0  0  0  0  0  0  0  0  0  0  0  0
    7.7162   15.5737    4.2889 H   0  0  0  0  0  0  0  0  0  0  0  0
    5.8600   15.4181    2.6285 H   0  0  0  0  0  0  0  0  0  0  0  0
    5.0029   13.1934    1.9065 H   0  0  0  0  0  0  0  0  0  0  0  0
    6.0020   11.1105    2.8410 H   0  0  0  0  0  0  0  0  0  0  0  0
    7.8584   11.2506    4.4976 H   0  0  0  0  0  0  0  0  0  0  0  0
  2  1  2  0
  3  2  1  0
  4  3  2  0
  5  4  1  0
  6  5  2  0
  6  1  1  0
  7  5  1  0
  8  7  1  0
  9  1  1  0
 10  9  1  0
 11 10  1  0
 13 12  1  0
 14 13  1  0
 15 14  1  0
 16 11  1  0
 16 15  1  0
 16 12  1  0
 18 17  1  0
 18 12  1  0
 19  4  1  0
 20 19  1  0
 21 20  2  0
 22 21  1  0
 23 22  2  0
 24 20  1  0
 24 23  1  0
 25 24  1  0
 26 25  2  0
 27 26  1  0
 28 27  2  0
 29 28  1  0
 30 29  2  0
 30 25  1  0
  2 31  1  0
  3 32  1  0
  6 33  1  0
  8 34  1  0
  8 35  1  0
  8 36  1  0
  9 37  1  0
  9 38  1  0
 10 39  1  0
 10 40  1  0
 11 41  1  0
 11 42  1  0
 12 43  1  6
 13 44  1  0
 13 45  1  0
 14 46  1  0
 14 47  1  0
 15 48  1  0
 15 49  1  0
 16 50  1  1
 17 51  1  0
 17 52  1  0
 17 53  1  0
 18 54  1  0
 18 55  1  0
 26 56  1  0
 27 57  1  0
 28 58  1  0
 29 59  1  0
 30 60  1  0
M  CHG  2  10   1  12   1
M  END
$$$$
=
     RDKit          3D

 55 59  0  0  0  0  0  0  0  0999 V2000
    8.6580   13.3320    3.9650 C   0  0  1  0  0  0  0  0  0  0  0  0
    8.2450   13.0810    5.4330 C   0  0  0  0  0  0  0  0  0  0  0  0
    7.7340   14.3320    6.1200 C   0  0  0  0  0  0  0  0  0  0  0  0
    6.5610   14.8860    5.3760 N   0  0  0  0  0  4  0  0  0  0  0  0
    6.5560   14.7040    3.8860 C   0  0  0  0  0  0  0  0  0  0  0  0
    7.9840   14.5930    3.3580 C   0  0  2  0  0  0  0  0  0  0  0  0
   13.0030   13.4940    3.5860 C   0  0  0  0  0  0  0  0  0  0  0  0
   12.3140   14.2950    4.5070 C   0  0  0  0  0  0  0  0  0  0  0  0
   10.9210   14.2350    4.6180 C   0  0  0  0  0  0  0  0  0  0  0  0
   10.1710   13.3690    3.8110 C   0  0  0  0  0  0  0  0  0  0  0  0
   10.8550   12.5640    2.8900 C   0  0  0  0  0  0  0  0  0  0  0  0
   12.2490   12.6280    2.7810 C   0  0  0  0  0  0  0  0  0  0  0  0
   18.5960   13.7480    3.1300 F   0  0  0  0  0  0  0  0  0  0  0  0
   17.2630   13.6870    3.2400 C   0  0  0  0  0  0  0  0  0  0  0  0
   16.5910   12.5530    2.8030 C   0  0  0  0  0  0  0  0  0  0  0  0
   15.1990   12.4900    2.9170 C   0  0  0  0  0  0  0  0  0  0  0  0
   14.4690   13.5590    3.4680 C   0  0  0  0  0  0  0  0  0  0  0  0
   15.1800   14.6940    3.9020 C   0  0  0  0  0  0  0  0  0  0  0  0
   16.5710   14.7580    3.7880 C   0  0  0  0  0  0  0  0  0  0  0  0
    7.9750   14.5500    1.8190 C   0  0  0  0  0  0  0  0  0  0  0  0
    7.1210   13.4850    1.4030 O   0  0  0  0  0  0  0  0  0  0  0  0
    7.4930   12.7950    0.2800 C   0  0  0  0  0  0  0  0  0  0  0  0
    8.3860   11.7320    0.5210 C   0  0  0  0  0  0  0  0  0  0  0  0
    8.8550   10.9310   -0.5260 C   0  0  0  0  0  0  0  0  0  0  0  0
    8.4100   11.2190   -1.7960 C   0  0  0  0  0  0  0  0  0  0  0  0
    7.5390   12.2540   -2.0350 C   0  0  0  0  0  0  0  0  0  0  0  0
    7.0600   13.0610   -1.0220 C   0  0  0  0  0  0  0  0  0  0  0  0
    7.2230   12.3700   -3.3540 O   0  0  0  0  0  0  0  0  0  0  0  0
    8.0050   11.2940   -3.9180 C   0  0  0  0  0  0  0  0  0  0  0  0
    8.7540   10.5560   -2.9300 O   0  0  0  0  0  0  0  0  0  0  0  0
    8.2852   12.4760    3.3833 H   0  0  0  0  0  0  0  0  0  0  0  0
    7.4501   12.3209    5.4497 H   0  0  0  0  0  0  0  0  0  0  0  0
    9.1404   12.7459    5.9770 H   0  0  0  0  0  0  0  0  0  0  0  0
    7.4287   14.0837    7.1472 H   0  0  0  0  0  0  0  0  0  0  0  0
    8.5359   15.0848    6.1387 H   0  0  0  0  0  0  0  0  0  0  0  0
    5.7141   14.4329    5.7479 H   0  0  0  0  0  0  0  0  0  0  0  0
    6.6060   15.9045    5.5225 H   0  0  0  0  0  0  0  0  0  0  0  0
    6.0045   13.7859    3.6350 H   0  0  0  0  0  0  0  0  0  0  0  0
    6.0710   15.5755    3.4220 H   0  0  0  0  0  0  0  0  0  0  0  0
    8.5675   15.4751    3.6604 H   0  0  0  0  0  0  0  0  0  0  0  0
   12.8786   14.9827    5.1537 H   0  0  0  0  0  0  0  0  0  0  0  0
   10.4071   14.8765    5.3490 H   0  0  0  0  0  0  0  0  0  0  0  0
   10.2901   11.8743    2.2457 H   0  0  0  0  0  0  0  0  0  0  0  0
   12.7629   11.9867    2.0498 H   0  0  0  0  0  0  0  0  0  0  0  0
   17.1500   11.7103    2.3702 H   0  0  0  0  0  0  0  0  0  0  0  0
   14.6669   11.5916    2.5709 H   0  0  0  0  0  0  0  0  0  0  0  0
   14.6323   15.5429    4.3372 H   0  0  0  0  0  0  0  0  0  0  0  0
   17.1141   15.6513    4.1303 H   0  0  0  0  0  0  0  0  0  0  0  0
    7.5983   15.5046    1.4229 H   0  0  0  0  0  0  0  0  0  0  0  0
    8.9945   14.3870    1.4395 H   0  0  0  0  0  0  0  0  0  0  0  0
    8.7199   11.5285    1.5492 H   0  0  0  0  0  0  0  0  0  0  0  0
    9.5536   10.1017   -0.3408 H   0  0  0  0  0  0  0  0  0  0  0  0
    6.3619   13.8846   -1.2325 H   0  0  0  0  0  0  0  0  0  0  0  0
    7.3241   10.5990   -4.4312 H   0  0  0  0  0  0  0  0  0  0  0  0
    8.7323   11.7461   -4.6084 H   0  0  0  0  0  0  0  0  0  0  0  0
  2  1  1  0
  3  2  1  0
  4  3  1  0
  5  4  1  0
  6  5  1  0
  6  1  1  0
  8  7  2  0
  9  8  1  0
 10  1  1  0
 10  9  2  0
 11 10  1  0
 12 11  2  0
 12  7  1  0
 14 13  1  0
 15 14  2  0
 16 15  1  0
 17 16  2  0
 17  7  1  0
 18 17  1  0
 19 18  2  0
 19 14  1  0
 20  6  1  0
 21 20  1  0
 22 21  1  0
 23 22  2  0
 24 23  1  0
 25 24  2  0
 26 25  1  0
 27 26  2  0
 27 22  1  0
 28 26  1  0
 29 28  1  0
 30 29  1  0
 30 25  1  0
  1 31  1  6
  2 32  1  0
  2 33  1  0
  3 34  1  0
  3 35  1  0
  4 36  1  0
  4 37  1  0
  5 38  1  0
  5 39  1  0
  6 40  1  6
  8 41  1  0
  9 42  1  0
 11 43  1  0
 12 44  1  0
 15 45  1  0
 16 46  1  0
 18 47  1  0
 19 48  1  0
 20 49  1  0
 20 50  1  0
 23 51  1  0
 24 52  1  0
 27 53  1  0
 29 54  1  0
 29 55  1  0
M  CHG  1   4   1
M  END
$$$$
=
     RDKit          3D

 41 43  0  0  0  0  0  0  0  0999 V2000
   18.2750   14.3740    3.6250 N   0  0  1  0  0  4  0  0  0  0  0  0
   18.0210   12.8870    3.3200 C   0  0  0  0  0  0  0  0  0  0  0  0
   16.7580   12.6340    2.4960 C   0  0  0  0  0  0  0  0  0  0  0  0
   15.5860   13.2480    3.2100 C   0  0  0  0  0  0  0  0  0  0  0  0
   15.7440   14.5570    3.6970 C   0  0  0  0  0  0  0  0  0  0  0  0
   17.0330   15.2570    3.3980 C   0  0  0  0  0  0  0  0  0  0  0  0
   14.6870   15.1830    4.3630 C   0  0  0  0  0  0  0  0  0  0  0  0
   13.4860   14.4990    4.5500 C   0  0  0  0  0  0  0  0  0  0  0  0
   13.3310   13.2010    4.0620 C   0  0  0  0  0  0  0  0  0  0  0  0
   14.3780   12.5740    3.3870 C   0  0  0  0  0  0  0  0  0  0  0  0
   18.8620   14.6140    5.0020 C   0  0  0  0  0  0  0  0  0  0  0  0
   22.0940   17.4370    5.9460 C   0  0  0  0  0  0  0  0  0  0  0  0
   21.5190   17.4700    4.5390 C   0  0  0  0  0  0  0  0  0  0  0  0
   20.1670   16.7570    4.4500 C   0  0  0  0  0  0  0  0  0  0  0  0
   20.2440   15.3120    4.9740 C   0  0  1  0  0  0  0  0  0  0  0  0
   20.8520   15.2950    6.3910 C   0  0  0  0  0  0  0  0  0  0  0  0
   22.1610   16.0150    6.4040 N   0  0  0  0  0  4  0  0  0  0  0  0
   18.9874   14.6604    2.9384 H   0  0  0  0  0  0  0  0  0  0  0  0
   18.8839   12.4950    2.7617 H   0  0  0  0  0  0  0  0  0  0  0  0
   17.8803   12.3808    4.2864 H   0  0  0  0  0  0  0  0  0  0  0  0
   16.8669   13.0916    1.5016 H   0  0  0  0  0  0  0  0  0  0  0  0
   16.5991   11.5522    2.3760 H   0  0  0  0  0  0  0  0  0  0  0  0
   17.0202   15.5770    2.3457 H   0  0  0  0  0  0  0  0  0  0  0  0
   17.1086   16.1085    4.0903 H   0  0  0  0  0  0  0  0  0  0  0  0
   14.8017   16.2107    4.7381 H   0  0  0  0  0  0  0  0  0  0  0  0
   12.6568   14.9852    5.0849 H   0  0  0  0  0  0  0  0  0  0  0  0
   12.3791   12.6701    4.2103 H   0  0  0  0  0  0  0  0  0  0  0  0
   14.2517   11.5535    2.9964 H   0  0  0  0  0  0  0  0  0  0  0  0
   18.1648   15.2458    5.5719 H   0  0  0  0  0  0  0  0  0  0  0  0
   19.0082   13.6277    5.4666 H   0  0  0  0  0  0  0  0  0  0  0  0
   23.1040   17.8729    5.9433 H   0  0  0  0  0  0  0  0  0  0  0  0
   21.4547   18.0196    6.6256 H   0  0  0  0  0  0  0  0  0  0  0  0
   21.3871   18.5188    4.2347 H   0  0  0  0  0  0  0  0  0  0  0  0
   22.2217   16.9458    3.8746 H   0  0  0  0  0  0  0  0  0  0  0  0
   19.4314   17.3137    5.0491 H   0  0  0  0  0  0  0  0  0  0  0  0
   19.8704   16.7201    3.3914 H   0  0  0  0  0  0  0  0  0  0  0  0
   20.8854   14.7538    4.2761 H   0  0  0  0  0  0  0  0  0  0  0  0
   20.1596   15.7889    7.0886 H   0  0  0  0  0  0  0  0  0  0  0  0
   21.0155   14.2511    6.6969 H   0  0  0  0  0  0  0  0  0  0  0  0
   22.5237   16.0047    7.3680 H   0  0  0  0  0  0  0  0  0  0  0  0
   22.7719   15.5220    5.7371 H   0  0  0  0  0  0  0  0  0  0  0  0
  2  1  1  0
  3  2  1  0
  4  3  1  0
  5  4  2  0
  6  5  1  0
  6  1  1  0
  7  5  1  0
  8  7  2  0
  9  8  1  0
 10  9  2  0
 10  4  1  0
 11  1  1  0
 13 12  1  0
 14 13  1  0
 15 11  1  0
 15 14  1  0
 16 15  1  0
 17 16  1  0
 17 12  1  0
  1 18  1  6
  2 19  1  0
  2 20  1  0
  3 21  1  0
  3 22  1  0
  6 23  1  0
  6 24  1  0
  7 25  1  0
  8 26  1  0
  9 27  1  0
 10 28  1  0
 11 29  1  0
 11 30  1  0
 12 31  1  0
 12 32  1  0
 13 33  1  0
 13 34  1  0
 14 35  1  0
 14 36  1  0
 15 37  1  6
 16 38  1  0
 16 39  1  0
 17 40  1  0
 17 41  1  0
M  CHG  2   1   1  17   1
M  END
$$$$
=
     RDKit          3D

 36 37  0  0  0  0  0  0  0  0999 V2000
   17.2590   14.9540    3.5550 N   0  0  0  0  0  4  0  0  0  0  0  0
   18.4250   14.0810    3.9170 C   0  0  0  0  0  0  0  0  0  0  0  0
   19.5900   14.8870    4.5000 C   0  0  2  0  0  0  0  0  0  0  0  0
   19.5750   14.9620    6.0220 C   0  0  0  0  0  0  0  0  0  0  0  0
   19.4990   16.2830    3.9210 C   0  0  0  0  0  0  0  0  0  0  0  0
   19.2350   17.2730    4.5880 O   0  0  0  0  0  0  0  0  0  0  0  0
   19.6540   17.5400    1.9480 C   0  0  0  0  0  0  0  0  0  0  0  0
   19.7400   16.2610    2.5860 O   0  0  0  0  0  0  0  0  0  0  0  0
   16.2180   15.1130    4.6150 C   0  0  0  0  0  0  0  0  0  0  0  0
   14.9400   14.4420    4.1990 C   0  0  0  0  0  0  0  0  0  0  0  0
   14.9740   13.2600    3.4210 C   0  0  0  0  0  0  0  0  0  0  0  0
   13.7920   12.6500    2.9890 C   0  0  0  0  0  0  0  0  0  0  0  0
   12.5980   13.2390    3.3400 C   0  0  0  0  0  0  0  0  0  0  0  0
   12.5540   14.3880    4.0910 C   0  0  0  0  0  0  0  0  0  0  0  0
   13.7000   15.0140    4.5340 C   0  0  0  0  0  0  0  0  0  0  0  0
   11.2840   14.8080    4.3240 O   0  0  0  0  0  0  0  0  0  0  0  0
   10.5250   13.7740    3.6560 C   0  0  0  0  0  0  0  0  0  0  0  0
   11.3600   12.7900    3.0080 O   0  0  0  0  0  0  0  0  0  0  0  0
   17.6230   15.8898    3.3254 H   0  0  0  0  0  0  0  0  0  0  0  0
   16.7897   14.4849    2.7672 H   0  0  0  0  0  0  0  0  0  0  0  0
   18.0967   13.3421    4.6628 H   0  0  0  0  0  0  0  0  0  0  0  0
   18.7789   13.5908    2.9981 H   0  0  0  0  0  0  0  0  0  0  0  0
   20.5305   14.3829    4.2330 H   0  0  0  0  0  0  0  0  0  0  0  0
   19.7745   13.9644    6.4403 H   0  0  0  0  0  0  0  0  0  0  0  0
   20.3505   15.6640    6.3622 H   0  0  0  0  0  0  0  0  0  0  0  0
   18.5891   15.3117    6.3622 H   0  0  0  0  0  0  0  0  0  0  0  0
   19.6010   18.3286    2.7131 H   0  0  0  0  0  0  0  0  0  0  0  0
   20.5436   17.6972    1.3204 H   0  0  0  0  0  0  0  0  0  0  0  0
   18.7514   17.5767    1.3204 H   0  0  0  0  0  0  0  0  0  0  0  0
   16.5792   14.6575    5.5489 H   0  0  0  0  0  0  0  0  0  0  0  0
   16.0248   16.1851    4.7673 H   0  0  0  0  0  0  0  0  0  0  0  0
   15.9435   12.8151    3.1525 H   0  0  0  0  0  0  0  0  0  0  0  0
   13.8155   11.7290    2.3880 H   0  0  0  0  0  0  0  0  0  0  0  0
   13.6456   15.9352    5.1328 H   0  0  0  0  0  0  0  0  0  0  0  0
    9.8962   13.2642    4.4008 H   0  0  0  0  0  0  0  0  0  0  0  0
    9.9232   14.2607    2.8743 H   0  0  0  0  0  0  0  0  0  0  0  0
  2  1  1  0
  3  2  1  0
  4  3  1  0
  5  3  1  0
  6  5  2  0
  8  5  1  0
  8  7  1  0
  9  1  1  0
 10  9  1  0
 11 10  2  0
 12 11  1  0
 13 12  2  0
 14 13  1  0
 15 14  2  0
 15 10  1  0
 16 14  1  0
 17 16  1  0
 18 17  1  0
 18 13  1  0
  1 19  1  0
  1 20  1  0
  2 21  1  0
  2 22  1  0
  3 23  1  1
  4 24  1  0
  4 25  1  0
  4 26  1  0
  7 27  1  0
  7 28  1  0
  7 29  1  0
  9 30  1  0
  9 31  1  0
 11 32  1  0
 12 33  1  0
 15 34  1  0
 17 35  1  0
 17 36  1  0
M  CHG  1   1   1
M  END
$$$$
=
     RDKit          3D

 42 44  0  0  0  0  0  0  0  0999 V2000
   28.9550   27.6320   15.2340 C   0  0  0  0  0  0  0  0  0  0  0  0
   28.7710   26.6670   14.2370 C   0  0  0  0  0  0  0  0  0  0  0  0
   29.2860   25.3630   14.3800 C   0  0  0  0  0  0  0  0  0  0  0  0
   30.0470   25.0570   15.5260 C   0  0  0  0  0  0  0  0  0  0  0  0
   30.2250   26.0260   16.5290 C   0  0  0  0  0  0  0  0  0  0  0  0
   29.6860   27.3090   16.3900 C   0  0  0  0  0  0  0  0  0  0  0  0
   30.6500   23.6860   15.7250 C   0  0  0  0  0  0  0  0  0  0  0  0
   30.8000   22.9260   14.4120 C   0  0  0  0  0  0  0  0  0  0  0  0
   29.5060   22.9530   13.6830 N   0  0  0  0  0  4  0  0  0  0  0  0
   29.0840   24.3360   13.2730 C   0  0  1  0  0  0  0  0  0  0  0  0
   27.6730   24.2480   12.7170 C   0  0  0  0  0  0  0  0  0  0  0  0
   27.4420   24.4720   11.3520 C   0  0  0  0  0  0  0  0  0  0  0  0
   26.1570   24.3320   10.8170 C   0  0  0  0  0  0  0  0  0  0  0  0
   25.0720   24.0050   11.6310 C   0  0  0  0  0  0  0  0  0  0  0  0
   25.3100   23.7290   12.9780 C   0  0  0  0  0  0  0  0  0  0  0  0
   26.5890   23.8640   13.5250 C   0  0  0  0  0  0  0  0  0  0  0  0
   23.8260   23.7330   11.0670 N   0  0  0  0  0  0  0  0  0  0  0  0
   28.2170   29.4730   13.8860 C   0  0  0  0  0  0  0  0  0  0  0  0
   28.4730   28.9140   15.1670 O   0  0  0  0  0  0  0  0  0  0  0  0
   29.8170   28.3100   17.3170 O   0  0  0  0  0  0  0  0  0  0  0  0
   29.0690   28.2150   18.5220 C   0  0  0  0  0  0  0  0  0  0  0  0
   28.2145   26.9311   13.3256 H   0  0  0  0  0  0  0  0  0  0  0  0
   30.7954   25.7718   17.4345 H   0  0  0  0  0  0  0  0  0  0  0  0
   31.6432   23.7992   16.1841 H   0  0  0  0  0  0  0  0  0  0  0  0
   29.9725   23.1102   16.3726 H   0  0  0  0  0  0  0  0  0  0  0  0
   31.5785   23.4021   13.7979 H   0  0  0  0  0  0  0  0  0  0  0  0
   31.0871   21.8843   14.6180 H   0  0  0  0  0  0  0  0  0  0  0  0
   29.5957   22.3739   12.8360 H   0  0  0  0  0  0  0  0  0  0  0  0
   28.7862   22.5920   14.3252 H   0  0  0  0  0  0  0  0  0  0  0  0
   29.7347   24.7198   12.4734 H   0  0  0  0  0  0  0  0  0  0  0  0
   28.2775   24.7600   10.6971 H   0  0  0  0  0  0  0  0  0  0  0  0
   25.9997   24.4819    9.7387 H   0  0  0  0  0  0  0  0  0  0  0  0
   24.4786   23.4003   13.6188 H   0  0  0  0  0  0  0  0  0  0  0  0
   26.7484   23.6683   14.5956 H   0  0  0  0  0  0  0  0  0  0  0  0
   23.0282   23.4921   11.6723 H   0  0  0  0  0  0  0  0  0  0  0  0
   23.7035   23.7730   10.0451 H   0  0  0  0  0  0  0  0  0  0  0  0
   27.7616   30.4673   14.0042 H   0  0  0  0  0  0  0  0  0  0  0  0
   29.1622   29.5662   13.3311 H   0  0  0  0  0  0  0  0  0  0  0  0
   27.5290   28.8182   13.3311 H   0  0  0  0  0  0  0  0  0  0  0  0
   29.7482   28.3013   19.3829 H   0  0  0  0  0  0  0  0  0  0  0  0
   28.3268   29.0261   18.5578 H   0  0  0  0  0  0  0  0  0  0  0  0
   28.5531   27.2441   18.5578 H   0  0  0  0  0  0  0  0  0  0  0  0
  2  1  2  0
  3  2  1  0
  4  3  2  0
  5  4  1  0
  6  5  2  0
  6  1  1  0
  7  4  1  0
  8  7  1  0
  9  8  1  0
 10  9  1  0
 10  3  1  0
 11 10  1  0
 12 11  2  0
 13 12  1  0
 14 13  2  0
 15 14  1  0
 16 15  2  0
 16 11  1  0
 17 14  1  0
 19 18  1  0
 19  1  1  0
 20  6  1  0
 21 20  1  0
  2 22  1  0
  5 23  1  0
  7 24  1  0
  7 25  1  0
  8 26  1  0
  8 27  1  0
  9 28  1  0
  9 29  1  0
 10 30  1  6
 12 31  1  0
 13 32  1  0
 15 33  1  0
 16 34  1  0
 17 35  1  0
 17 36  1  0
 18 37  1  0
 18 38  1  0
 18 39  1  0
 21 40  1  0
 21 41  1  0
 21 42  1  0
M  CHG  1   9   1
M  END
$$$$
=
     RDKit          3D

 48 52  0  0  0  0  0  0  0  0999 V2000
   26.7950   24.3690   12.5000 C   0  0  1  0  0  0  0  0  0  0  0  0
   27.8220   25.4900   12.7580 C   0  0  0  0  0  0  0  0  0  0  0  0
   27.2660   26.5070   13.6970 C   0  0  0  0  0  0  0  0  0  0  0  0
   27.9320   27.5140   14.4450 C   0  0  0  0  0  0  0  0  0  0  0  0
   29.2760   27.9120   14.5810 C   0  0  0  0  0  0  0  0  0  0  0  0
   29.5910   28.9800   15.4290 C   0  0  0  0  0  0  0  0  0  0  0  0
   28.5920   29.6460   16.1350 C   0  0  0  0  0  0  0  0  0  0  0  0
   27.2510   29.2690   16.0160 C   0  0  0  0  0  0  0  0  0  0  0  0
   26.9510   28.1990   15.1660 C   0  0  0  0  0  0  0  0  0  0  0  0
   25.7340   27.6280   14.8650 N   0  0  0  0  0  0  0  0  0  0  0  0
   25.9120   26.6060   13.9660 C   0  0  0  0  0  0  0  0  0  0  0  0
   24.8360   25.7370   13.4110 C   0  0  2  0  0  0  0  0  0  0  0  0
   25.4030   24.9840   12.2500 N   0  0  0  0  0  4  0  0  0  0  0  0
   23.5820   26.4730   12.9930 C   0  0  0  0  0  0  0  0  0  0  0  0
   23.1860   26.4820   11.6440 C   0  0  0  0  0  0  0  0  0  0  0  0
   22.0420   27.1780   11.2430 C   0  0  0  0  0  0  0  0  0  0  0  0
   21.2820   27.8720   12.1790 C   0  0  0  0  0  0  0  0  0  0  0  0
   21.6790   27.8980   13.5160 C   0  0  0  0  0  0  0  0  0  0  0  0
   22.8110   27.1940   13.9250 C   0  0  0  0  0  0  0  0  0  0  0  0
   21.0040   28.5880   14.4870 O   0  0  0  0  0  0  0  0  0  0  0  0
   20.0700   29.5200   13.9240 C   0  0  0  0  0  0  0  0  0  0  0  0
   19.2870   28.8810   12.7880 C   0  0  0  0  0  0  0  0  0  0  0  0
   20.1630   28.5110   11.7150 O   0  0  0  0  0  0  0  0  0  0  0  0
   27.2000   23.5250   11.2990 C   0  0  0  0  0  0  0  0  0  0  0  0
   28.1800   23.8060   10.6190 O   0  0  0  0  0  0  0  0  0  0  0  0
   26.9570   21.2910   10.6330 C   0  0  0  0  0  0  0  0  0  0  0  0
   26.3400   22.5020   11.0850 O   0  0  0  0  0  0  0  0  0  0  0  0
   26.7617   23.7211   13.3883 H   0  0  0  0  0  0  0  0  0  0  0  0
   28.7315   25.0530   13.1959 H   0  0  0  0  0  0  0  0  0  0  0  0
   28.0573   25.9815   11.8025 H   0  0  0  0  0  0  0  0  0  0  0  0
   30.0695   27.3893   14.0269 H   0  0  0  0  0  0  0  0  0  0  0  0
   30.6386   29.2967   15.5391 H   0  0  0  0  0  0  0  0  0  0  0  0
   28.8625   30.4820   16.7968 H   0  0  0  0  0  0  0  0  0  0  0  0
   26.4600   29.7949   16.5708 H   0  0  0  0  0  0  0  0  0  0  0  0
   24.8277   27.9232   15.2554 H   0  0  0  0  0  0  0  0  0  0  0  0
   24.5125   25.0645   14.2191 H   0  0  0  0  0  0  0  0  0  0  0  0
   24.7527   24.2210   12.0138 H   0  0  0  0  0  0  0  0  0  0  0  0
   25.5190   25.6674   11.4881 H   0  0  0  0  0  0  0  0  0  0  0  0
   23.7818   25.9364   10.8974 H   0  0  0  0  0  0  0  0  0  0  0  0
   21.7419   27.1770   10.1847 H   0  0  0  0  0  0  0  0  0  0  0  0
   23.1043   27.2019   14.9851 H   0  0  0  0  0  0  0  0  0  0  0  0
   19.3690   29.8453   14.7068 H   0  0  0  0  0  0  0  0  0  0  0  0
   20.6275   30.3812   13.5270 H   0  0  0  0  0  0  0  0  0  0  0  0
   18.7752   27.9823   13.1628 H   0  0  0  0  0  0  0  0  0  0  0  0
   18.5530   29.6084   12.4109 H   0  0  0  0  0  0  0  0  0  0  0  0
   27.2635   20.6894   11.5014 H   0  0  0  0  0  0  0  0  0  0  0  0
   26.2404   20.7191   10.0252 H   0  0  0  0  0  0  0  0  0  0  0  0
   27.8409   21.5345   10.0252 H   0  0  0  0  0  0  0  0  0  0  0  0
  2  1  1  0
  3  2  1  0
  4  3  1  0
  5  4  2  0
  6  5  1  0
  7  6  2  0
  8  7  1  0
  9  8  2  0
  9  4  1  0
 10  9  1  0
 11 10  1  0
 11  3  2  0
 12 11  1  0
 13 12  1  0
 13  1  1  0
 14 12  1  0
 15 14  2  0
 16 15  1  0
 17 16  2  0
 18 17  1  0
 19 18  2  0
 19 14  1  0
 20 18  1  0
 21 20  1  0
 22 21  1  0
 23 22  1  0
 23 17  1  0
 24  1  1  0
 25 24  2  0
 27 26  1  0
 27 24  1  0
  1 28  1  1
  2 29  1  0
  2 30  1  0
  5 31  1  0
  6 32  1  0
  7 33  1  0
  8 34  1  0
 10 35  1  0
 12 36  1  1
 13 37  1  0
 13 38  1  0
 15 39  1  0
 16 40  1  0
 19 41  1  0
 21 42  1  0
 21 43  1  0
 22 44  1  0
 22 45  1  0
 26 46  1  0
 26 47  1  0
 26 48  1  0
M  CHG  1  13   1
M  END
$$$$
=
     RDKit          3D

 52 53  0  0  0  0  0  0  0  0999 V2000
   18.7030   16.8830    5.4920 C   0  0  2  0  0  0  0  0  0  0  0  0
   17.9540   16.4320    4.1940 C   0  0  0  0  0  0  0  0  0  0  0  0
   18.6300   15.2400    3.4650 C   0  0  0  0  0  0  0  0  0  0  0  0
   17.8960   13.9140    3.6380 C   0  0  0  0  0  0  0  0  0  0  0  0
   16.4900   14.0030    3.2900 N   0  0  0  0  0  0  0  0  0  0  0  0
   15.8540   15.3140    3.2910 C   0  0  0  0  0  0  0  0  0  0  0  0
   16.4450   16.1870    4.3940 C   0  0  0  0  0  0  0  0  0  0  0  0
   15.8170   12.8350    2.9650 C   0  0  0  0  0  0  0  0  0  0  0  0
   16.3370   11.7290    3.0410 O   0  0  0  0  0  0  0  0  0  0  0  0
   14.5420   13.0690    2.5680 O   0  0  0  0  0  0  0  0  0  0  0  0
   13.4180   12.7540    3.4300 C   0  0  0  0  0  0  0  0  0  0  0  0
   13.6940   11.5000    4.2690 C   0  0  0  0  0  0  0  0  0  0  0  0
   13.0300   13.9530    4.3010 C   0  0  0  0  0  0  0  0  0  0  0  0
   12.2620   12.4530    2.4640 C   0  0  0  0  0  0  0  0  0  0  0  0
   20.1460   17.3280    5.2080 C   0  0  0  0  0  0  0  0  0  0  0  0
   20.4740   18.0810    4.0630 C   0  0  0  0  0  0  0  0  0  0  0  0
   21.7860   18.4970    3.8190 C   0  0  0  0  0  0  0  0  0  0  0  0
   22.8010   18.1650    4.7090 C   0  0  0  0  0  0  0  0  0  0  0  0
   22.5070   17.4090    5.8380 C   0  0  0  0  0  0  0  0  0  0  0  0
   21.1970   16.9920    6.0840 C   0  0  0  0  0  0  0  0  0  0  0  0
   18.7720   15.7570    6.4110 O   0  0  0  0  0  0  0  0  0  0  0  0
   17.9360   17.9500    6.3340 C   0  0  0  0  0  0  0  0  0  0  0  0
   18.7440   19.2140    6.3250 N   0  0  0  0  0  4  0  0  0  0  0  0
   18.0421   17.3023    3.5270 H   0  0  0  0  0  0  0  0  0  0  0  0
   18.6770   15.4724    2.3909 H   0  0  0  0  0  0  0  0  0  0  0  0
   19.6265   15.1146    3.9136 H   0  0  0  0  0  0  0  0  0  0  0  0
   18.3716   13.1615    2.9918 H   0  0  0  0  0  0  0  0  0  0  0  0
   17.9585   13.6356    4.7003 H   0  0  0  0  0  0  0  0  0  0  0  0
   16.0188   15.7982    2.3172 H   0  0  0  0  0  0  0  0  0  0  0  0
   14.7761   15.1893    3.4716 H   0  0  0  0  0  0  0  0  0  0  0  0
   15.9254   17.1566    4.3956 H   0  0  0  0  0  0  0  0  0  0  0  0
   16.3112   15.6608    5.3507 H   0  0  0  0  0  0  0  0  0  0  0  0
   13.6380   11.7543    5.3377 H   0  0  0  0  0  0  0  0  0  0  0  0
   12.9438   10.7302    4.0355 H   0  0  0  0  0  0  0  0  0  0  0  0
   14.6981   11.1163    4.0355 H   0  0  0  0  0  0  0  0  0  0  0  0
   13.1187   13.6790    5.3626 H   0  0  0  0  0  0  0  0  0  0  0  0
   13.7009   14.7970    4.0829 H   0  0  0  0  0  0  0  0  0  0  0  0
   11.9918   14.2440    4.0829 H   0  0  0  0  0  0  0  0  0  0  0  0
   11.3550   12.2168    3.0399 H   0  0  0  0  0  0  0  0  0  0  0  0
   12.0753   13.3325    1.8302 H   0  0  0  0  0  0  0  0  0  0  0  0
   12.5279   11.5942    1.8302 H   0  0  0  0  0  0  0  0  0  0  0  0
   19.6821   18.3466    3.3472 H   0  0  0  0  0  0  0  0  0  0  0  0
   22.0159   19.0885    2.9205 H   0  0  0  0  0  0  0  0  0  0  0  0
   23.8320   18.4990    4.5208 H   0  0  0  0  0  0  0  0  0  0  0  0
   23.3092   17.1382    6.5402 H   0  0  0  0  0  0  0  0  0  0  0  0
   20.9817   16.3897    6.9789 H   0  0  0  0  0  0  0  0  0  0  0  0
   18.7516   16.0900    7.3431 H   0  0  0  0  0  0  0  0  0  0  0  0
   16.9469   18.1358    5.8900 H   0  0  0  0  0  0  0  0  0  0  0  0
   17.7939   17.5940    7.3650 H   0  0  0  0  0  0  0  0  0  0  0  0
   18.9321   19.5082    7.2940 H   0  0  0  0  0  0  0  0  0  0  0  0
   19.6359   19.0479    5.8374 H   0  0  0  0  0  0  0  0  0  0  0  0
   18.2188   19.9538    5.8374 H   0  0  0  0  0  0  0  0  0  0  0  0
  2  1  1  0
  3  2  1  0
  4  3  1  0
  5  4  1  0
  6  5  1  0
  7  6  1  0
  7  2  1  0
  8  5  1  0
  9  8  2  0
 10  8  1  0
 11 10  1  0
 12 11  1  0
 13 11  1  0
 14 11  1  0
 15  1  1  0
 16 15  2  0
 17 16  1  0
 18 17  2  0
 19 18  1  0
 20 15  1  0
 20 19  2  0
  1 21  1  1
 22  1  1  0
 23 22  1  0
  2 24  1  0
  3 25  1  0
  3 26  1  0
  4 27  1  0
  4 28  1  0
  6 29  1  0
  6 30  1  0
  7 31  1  0
  7 32  1  0
 12 33  1  0
 12 34  1  0
 12 35  1  0
 13 36  1  0
 13 37  1  0
 13 38  1  0
 14 39  1  0
 14 40  1  0
 14 41  1  0
 16 42  1  0
 17 43  1  0
 18 44  1  0
 19 45  1  0
 20 46  1  0
 21 47  1  0
 22 48  1  0
 22 49  1  0
 23 50  1  0
 23 51  1  0
 23 52  1  0
M  CHG  1  23   1
M  END
$$$$
=
     RDKit          3D

 25 25  0  0  0  0  0  0  0  0999 V2000
   16.9950   14.3180    4.0470 C   0  0  0  0  0  0  0  0  0  0  0  0
   16.5680   13.3800    3.0810 C   0  0  0  0  0  0  0  0  0  0  0  0
   15.1970   13.1060    2.9390 C   0  0  0  0  0  0  0  0  0  0  0  0
   14.2410   13.8130    3.6790 C   0  0  0  0  0  0  0  0  0  0  0  0
   14.6330   14.7860    4.5960 C   0  0  0  0  0  0  0  0  0  0  0  0
   16.0020   15.0220    4.7660 C   0  0  0  0  0  0  0  0  0  0  0  0
   17.4710   12.5470    2.4100 N   0  0  0  0  0  0  0  0  0  0  0  0
   16.3640   16.0420    5.7380 N   0  0  0  0  0  4  0  0  0  0  0  0
   16.4600   15.6830    6.9180 O   0  0  0  0  0  0  0  0  0  0  0  0
   16.5780   17.1790    5.3030 O   0  0  0  0  0  1  0  0  0  0  0  0
   12.8140   13.5230    3.4880 N   0  0  0  0  0  4  0  0  0  0  0  0
   12.5100   12.6230    2.6950 O   0  0  0  0  0  0  0  0  0  0  0  0
   12.0030   14.2050    4.1290 O   0  0  0  0  0  1  0  0  0  0  0  0
   18.4740   14.5490    4.2910 C   0  0  0  0  0  0  0  0  0  0  0  0
   19.0560   15.6530    3.4090 C   0  0  0  0  0  0  0  0  0  0  0  0
   19.3230   16.7940    4.2140 O   0  0  0  0  0  0  0  0  0  0  0  0
   14.8701   12.3251    2.2366 H   0  0  0  0  0  0  0  0  0  0  0  0
   13.8865   15.3535    5.1710 H   0  0  0  0  0  0  0  0  0  0  0  0
   17.1280   11.8731    1.7107 H   0  0  0  0  0  0  0  0  0  0  0  0
   18.4784   12.6080    2.6156 H   0  0  0  0  0  0  0  0  0  0  0  0
   18.6164   14.8299    5.3450 H   0  0  0  0  0  0  0  0  0  0  0  0
   18.9998   13.6154    4.0420 H   0  0  0  0  0  0  0  0  0  0  0  0
   19.9897   15.3015    2.9457 H   0  0  0  0  0  0  0  0  0  0  0  0
   18.3378   15.9151    2.6181 H   0  0  0  0  0  0  0  0  0  0  0  0
   19.2646   16.5442    5.1702 H   0  0  0  0  0  0  0  0  0  0  0  0
  2  1  2  0
  3  2  1  0
  4  3  2  0
  5  4  1  0
  6  5  2  0
  6  1  1  0
  7  2  1  0
  8  6  1  0
  9  8  2  0
 10  8  1  0
 11  4  1  0
 12 11  2  0
 13 11  1  0
 14  1  1  0
 15 14  1  0
 16 15  1  0
  3 17  1  0
  5 18  1  0
  7 19  1  0
  7 20  1  0
 14 21  1  0
 14 22  1  0
 15 23  1  0
 15 24  1  0
 16 25  1  0
M  CHG  4   8   1  10  -1  11   1  13  -1
M  END
$$$$
=
     RDKit          3D

 26 27  0  0  0  0  0  0  0  0999 V2000
   20.4700   17.0000    4.3140 N   0  0  0  0  0  0  0  0  0  0  0  0
   20.9160   18.0020    3.3500 C   0  0  0  0  0  0  0  0  0  0  0  0
   21.9980   18.7750    4.1010 C   0  0  0  0  0  0  0  0  0  0  0  0
   22.6300   17.7020    4.9710 C   0  0  2  0  0  0  0  0  0  0  0  0
   21.4390   16.8330    5.3950 C   0  0  0  0  0  0  0  0  0  0  0  0
   15.8630   16.1170    4.9700 O   0  0  0  0  0  0  0  0  0  0  0  0
   16.9610   15.7560    4.5680 C   0  0  0  0  0  0  0  0  0  0  0  0
   17.1850   14.5470    3.9970 N   0  0  0  0  0  0  0  0  0  0  0  0
   18.4220   14.1960    3.5640 C   0  0  0  0  0  0  0  0  0  0  0  0
   19.4660   14.9470    3.6520 N   0  0  0  0  0  0  0  0  0  0  0  0
   19.3330   16.1960    4.2230 C   0  0  0  0  0  0  0  0  0  0  0  0
   18.1400   16.6240    4.6760 C   0  0  0  0  0  0  0  0  0  0  0  0
   23.3280   18.3140    6.1300 N   0  0  0  0  0  4  0  0  0  0  0  0
   21.3297   17.5231    2.4503 H   0  0  0  0  0  0  0  0  0  0  0  0
   20.0978   18.6482    2.9993 H   0  0  0  0  0  0  0  0  0  0  0  0
   22.7332   19.2059    3.4054 H   0  0  0  0  0  0  0  0  0  0  0  0
   21.6072   19.6285    4.6744 H   0  0  0  0  0  0  0  0  0  0  0  0
   23.4014   17.1125    4.4539 H   0  0  0  0  0  0  0  0  0  0  0  0
   21.0215   17.1830    6.3506 H   0  0  0  0  0  0  0  0  0  0  0  0
   21.7196   15.7808    5.5503 H   0  0  0  0  0  0  0  0  0  0  0  0
   16.4037   13.8844    3.8902 H   0  0  0  0  0  0  0  0  0  0  0  0
   18.5422   13.2028    3.1067 H   0  0  0  0  0  0  0  0  0  0  0  0
   18.0485   17.6232    5.1267 H   0  0  0  0  0  0  0  0  0  0  0  0
   22.9195   17.9558    7.0050 H   0  0  0  0  0  0  0  0  0  0  0  0
   24.3288   18.0730    6.0944 H   0  0  0  0  0  0  0  0  0  0  0  0
   23.2199   19.3377    6.0944 H   0  0  0  0  0  0  0  0  0  0  0  0
  2  1  1  0
  3  2  1  0
  4  3  1  0
  5  1  1  0
  5  4  1  0
  7  6  2  0
  8  7  1  0
  9  8  1  0
 10  9  2  0
 11 10  1  0
 11  1  1  0
 12 11  2  0
 12  7  1  0
 13  4  1  0
  2 14  1  0
  2 15  1  0
  3 16  1  0
  3 17  1  0
  4 18  1  6
  5 19  1  0
  5 20  1  0
  8 21  1  0
  9 22  1  0
 12 23  1  0
 13 24  1  0
 13 25  1  0
 13 26  1  0
M  CHG  1  13   1
M  END
$$$$
=
     RDKit          3D

 26 27  0  0  0  0  0  0  0  0999 V2000
   22.4510   18.1020    5.4620 C   0  0  0  0  0  0  0  0  0  0  0  0
   21.3410   18.6230    4.7890 C   0  0  0  0  0  0  0  0  0  0  0  0
   20.0880   17.9930    4.8180 C   0  0  0  0  0  0  0  0  0  0  0  0
   19.9980   16.7870    5.5200 C   0  0  0  0  0  0  0  0  0  0  0  0
   21.1000   16.2130    6.1520 C   0  0  0  0  0  0  0  0  0  0  0  0
   22.3440   16.8620    6.1040 C   0  0  0  0  0  0  0  0  0  0  0  0
   20.7620   15.0240    6.7510 N   0  0  0  0  0  0  0  0  0  0  0  0
   19.4830   14.8650    6.5000 C   0  0  0  0  0  0  0  0  0  0  0  0
   18.9740   15.9000    5.7610 N   0  0  0  0  0  0  0  0  0  0  0  0
   23.7090   18.7050    5.3090 N   0  0  0  0  0  0  0  0  0  0  0  0
   17.5920   16.0210    5.3120 C   0  0  0  0  0  0  0  0  0  0  0  0
   16.6050   15.8180    6.4610 C   0  0  0  0  0  0  0  0  0  0  0  0
   17.2930   15.0770    4.1470 C   0  0  0  0  0  0  0  0  0  0  0  0
   21.4543   19.5568    4.2187 H   0  0  0  0  0  0  0  0  0  0  0  0
   19.2145   18.4286    4.3107 H   0  0  0  0  0  0  0  0  0  0  0  0
   23.2282   16.3999    6.5673 H   0  0  0  0  0  0  0  0  0  0  0  0
   18.8909   14.0035    6.8423 H   0  0  0  0  0  0  0  0  0  0  0  0
   24.5272   18.3223    5.8040 H   0  0  0  0  0  0  0  0  0  0  0  0
   23.8141   19.5302    4.7017 H   0  0  0  0  0  0  0  0  0  0  0  0
   17.4607   17.0494    4.9444 H   0  0  0  0  0  0  0  0  0  0  0  0
   17.1319   15.9264    7.4205 H   0  0  0  0  0  0  0  0  0  0  0  0
   15.8054   16.5705    6.3948 H   0  0  0  0  0  0  0  0  0  0  0  0
   16.1673   14.8110    6.3948 H   0  0  0  0  0  0  0  0  0  0  0  0
   16.9827   14.0973    4.5393 H   0  0  0  0  0  0  0  0  0  0  0  0
   16.4844   15.4985    3.5318 H   0  0  0  0  0  0  0  0  0  0  0  0
   18.1968   14.9561    3.5318 H   0  0  0  0  0  0  0  0  0  0  0  0
  2  1  2  0
  3  2  1  0
  4  3  2  0
  5  4  1  0
  6  5  2  0
  6  1  1  0
  7  5  1  0
  8  7  2  0
  9  8  1  0
  9  4  1  0
 10  1  1  0
 11  9  1  0
 12 11  1  0
 13 11  1  0
  2 14  1  0
  3 15  1  0
  6 16  1  0
  8 17  1  0
 10 18  1  0
 10 19  1  0
 11 20  1  0
 12 21  1  0
 12 22  1  0
 12 23  1  0
 13 24  1  0
 13 25  1  0
 13 26  1  0
M  END
$$$$
=
     RDKit          3D

 35 37  0  0  0  0  0  0  0  0999 V2000
   17.9640   15.1650    4.3770 C   0  0  0  0  0  0  0  0  0  0  0  0
   16.7350   15.6940    4.7960 C   0  0  0  0  0  0  0  0  0  0  0  0
   16.6540   16.9350    5.6450 C   0  0  0  0  0  0  0  0  0  0  0  0
   15.5320   15.1490    4.4880 N   0  0  0  0  0  0  0  0  0  0  0  0
   15.5850   14.0330    3.7280 C   0  0  0  0  0  0  0  0  0  0  0  0
   16.7470   13.4350    3.2600 C   0  0  0  0  0  0  0  0  0  0  0  0
   17.9940   14.0010    3.5800 C   0  0  0  0  0  0  0  0  0  0  0  0
   16.3020   12.3250    2.5220 C   0  0  0  0  0  0  0  0  0  0  0  0
   14.9760   12.2010    2.5090 N   0  0  0  0  0  0  0  0  0  0  0  0
   14.5220   13.2570    3.2530 N   0  0  0  0  0  0  0  0  0  0  0  0
   13.1160   13.4280    3.4440 C   0  0  0  0  0  0  0  0  0  0  0  0
   12.5950   14.3400    4.3730 C   0  0  0  0  0  0  0  0  0  0  0  0
   11.2120   14.4770    4.5290 C   0  0  0  0  0  0  0  0  0  0  0  0
   10.3370   13.7100    3.7630 C   0  0  0  0  0  0  0  0  0  0  0  0
   10.8420   12.8010    2.8380 C   0  0  0  0  0  0  0  0  0  0  0  0
   12.2220   12.6590    2.6780 C   0  0  0  0  0  0  0  0  0  0  0  0
   19.1830   13.4270    3.0790 N   0  0  0  0  0  0  0  0  0  0  0  0
   19.2150   15.8460    4.7700 C   0  0  0  0  0  0  0  0  0  0  0  0
   19.7020   15.7990    5.8860 O   0  0  0  0  0  0  0  0  0  0  0  0
   19.7130   17.9110    3.8010 C   0  0  0  0  0  0  0  0  0  0  0  0
   19.7350   16.4860    3.6910 O   0  0  0  0  0  0  0  0  0  0  0  0
   16.6724   16.6537    6.7083 H   0  0  0  0  0  0  0  0  0  0  0  0
   17.5115   17.5874    5.4235 H   0  0  0  0  0  0  0  0  0  0  0  0
   15.7190   17.4704    5.4235 H   0  0  0  0  0  0  0  0  0  0  0  0
   16.9804   11.6288    2.0070 H   0  0  0  0  0  0  0  0  0  0  0  0
   13.2776   14.9508    4.9822 H   0  0  0  0  0  0  0  0  0  0  0  0
   10.8128   15.1946    5.2609 H   0  0  0  0  0  0  0  0  0  0  0  0
    9.2500   13.8225    3.8889 H   0  0  0  0  0  0  0  0  0  0  0  0
   10.1533   12.1937    2.2322 H   0  0  0  0  0  0  0  0  0  0  0  0
   12.6137   11.9382    1.9452 H   0  0  0  0  0  0  0  0  0  0  0  0
   20.0951   13.8434    3.3148 H   0  0  0  0  0  0  0  0  0  0  0  0
   19.1382   12.5919    2.4778 H   0  0  0  0  0  0  0  0  0  0  0  0
   19.7086   18.1967    4.8632 H   0  0  0  0  0  0  0  0  0  0  0  0
   20.6048   18.3303    3.3122 H   0  0  0  0  0  0  0  0  0  0  0  0
   18.8087   18.3026    3.3122 H   0  0  0  0  0  0  0  0  0  0  0  0
  2  1  2  0
  3  2  1  0
  4  2  1  0
  5  4  2  0
  6  5  1  0
  7  6  2  0
  7  1  1  0
  8  6  1  0
  9  8  2  0
 10  9  1  0
 10  5  1  0
 11 10  1  0
 12 11  2  0
 13 12  1  0
 14 13  2  0
 15 14  1  0
 16 15  2  0
 16 11  1  0
 17  7  1  0
 18  1  1  0
 19 18  2  0
 21 18  1  0
 21 20  1  0
  3 22  1  0
  3 23  1  0
  3 24  1  0
  8 25  1  0
 12 26  1  0
 13 27  1  0
 14 28  1  0
 15 29  1  0
 16 30  1  0
 17 31  1  0
 17 32  1  0
 20 33  1  0
 20 34  1  0
 20 35  1  0
M  END
$$$$
=
     RDKit          3D

 30 31  0  0  0  0  0  0  0  0999 V2000
   16.8590   15.5070    4.5610 C   0  0  0  0  0  0  0  0  0  0  0  0
   15.8080   16.1100    5.0890 N   0  0  0  0  0  0  0  0  0  0  0  0
   14.6760   15.4060    4.7890 N   0  0  0  0  0  0  0  0  0  0  0  0
   15.0340   14.3750    4.0700 C   0  0  0  0  0  0  0  0  0  0  0  0
   16.3970   14.3960    3.8980 N   0  0  0  0  0  0  0  0  0  0  0  0
   17.1160   13.3510    3.2020 C   0  0  0  0  0  0  0  0  0  0  0  0
   16.1940   12.5130    2.3090 C   0  0  0  0  0  0  0  0  0  0  0  0
   14.9420   12.1340    3.0470 N   0  0  0  0  0  4  0  0  0  0  0  0
   14.1600   13.3380    3.4890 C   0  0  0  0  0  0  0  0  0  0  0  0
   18.3100   17.3050    5.5180 C   0  0  0  0  0  0  0  0  0  0  0  0
   18.2890   16.0050    4.6790 C   0  0  0  0  0  0  0  0  0  0  0  0
   19.1950   14.9880    5.3920 C   0  0  0  0  0  0  0  0  0  0  0  0
   18.8530   16.3370    3.2870 C   0  0  0  0  0  0  0  0  0  0  0  0
   17.8935   13.8123    2.5753 H   0  0  0  0  0  0  0  0  0  0  0  0
   17.5562   12.6824    3.9565 H   0  0  0  0  0  0  0  0  0  0  0  0
   15.9246   13.0986    1.4176 H   0  0  0  0  0  0  0  0  0  0  0  0
   16.7239   11.5946    2.0162 H   0  0  0  0  0  0  0  0  0  0  0  0
   14.3505   11.5633    2.4263 H   0  0  0  0  0  0  0  0  0  0  0  0
   15.2170   11.6080    3.8888 H   0  0  0  0  0  0  0  0  0  0  0  0
   13.6351   13.7607    2.6196 H   0  0  0  0  0  0  0  0  0  0  0  0
   13.4473   13.0179    4.2633 H   0  0  0  0  0  0  0  0  0  0  0  0
   18.3059   17.0508    6.5882 H   0  0  0  0  0  0  0  0  0  0  0  0
   19.2175   17.8797    5.2811 H   0  0  0  0  0  0  0  0  0  0  0  0
   17.4215   17.9087    5.2811 H   0  0  0  0  0  0  0  0  0  0  0  0
   19.0911   15.1046    6.4809 H   0  0  0  0  0  0  0  0  0  0  0  0
   18.9004   13.9684    5.1026 H   0  0  0  0  0  0  0  0  0  0  0  0
   20.2417   15.1633    5.1026 H   0  0  0  0  0  0  0  0  0  0  0  0
   19.7963   16.8922    3.3964 H   0  0  0  0  0  0  0  0  0  0  0  0
   19.0387   15.4041    2.7345 H   0  0  0  0  0  0  0  0  0  0  0  0
   18.1274   16.9521    2.7345 H   0  0  0  0  0  0  0  0  0  0  0  0
  2  1  2  0
  3  2  1  0
  4  3  2  0
  5  4  1  0
  5  1  1  0
  6  5  1  0
  7  6  1  0
  8  7  1  0
  9  8  1  0
  9  4  1  0
 11  1  1  0
 11 10  1  0
 12 11  1  0
 13 11  1  0
  6 14  1  0
  6 15  1  0
  7 16  1  0
  7 17  1  0
  8 18  1  0
  8 19  1  0
  9 20  1  0
  9 21  1  0
 10 22  1  0
 10 23  1  0
 10 24  1  0
 12 25  1  0
 12 26  1  0
 12 27  1  0
 13 28  1  0
 13 29  1  0
 13 30  1  0
M  CHG  1   8   1
M  END
$$$$
=
     RDKit          3D

 48 50  0  0  0  0  0  0  0  0999 V2000
   27.4550   26.1280   13.0430 N   0  0  0  0  0  0  0  0  0  0  0  0
   28.3470   25.9430   14.1060 C   0  0  0  0  0  0  0  0  0  0  0  0
   28.8640   24.7310   14.3310 N   0  0  0  0  0  0  0  0  0  0  0  0
   29.7010   24.5870   15.3590 C   0  0  0  0  0  0  0  0  0  0  0  0
   30.0590   25.5560   16.2030 N   0  0  0  0  0  0  0  0  0  0  0  0
   29.5040   26.7640   16.0040 C   0  0  0  0  0  0  0  0  0  0  0  0
   28.6590   27.0370   14.9290 C   0  0  0  0  0  0  0  0  0  0  0  0
   28.0410   28.3890   14.6420 C   0  0  0  0  0  0  0  0  0  0  0  0
   28.6100   29.6470   15.3060 C   0  0  0  0  0  0  0  0  0  0  0  0
   30.1050   29.6130   15.3420 N   0  0  0  0  0  4  0  0  0  0  0  0
   30.7140   28.9130   16.5230 C   0  0  0  0  0  0  0  0  0  0  0  0
   29.8560   27.7740   17.0550 C   0  0  0  0  0  0  0  0  0  0  0  0
   26.9490   24.9900   12.2420 C   0  0  1  0  0  0  0  0  0  0  0  0
   25.4550   25.1320   11.9910 C   0  0  0  0  0  0  0  0  0  0  0  0
   24.7750   26.2540   12.4980 C   0  0  0  0  0  0  0  0  0  0  0  0
   23.4040   26.4240   12.2830 C   0  0  0  0  0  0  0  0  0  0  0  0
   22.6820   25.4850   11.5420 C   0  0  0  0  0  0  0  0  0  0  0  0
   23.3480   24.3630   11.0410 C   0  0  0  0  0  0  0  0  0  0  0  0
   24.7180   24.1940   11.2570 C   0  0  0  0  0  0  0  0  0  0  0  0
   21.2020   25.6420   11.3470 C   0  0  0  0  0  0  0  0  0  0  0  0
   27.8450   24.6200   11.0480 C   0  0  0  0  0  0  0  0  0  0  0  0
   28.2250   23.1430   11.0560 C   0  0  0  0  0  0  0  0  0  0  0  0
   29.0710   22.8730   12.1680 O   0  0  0  0  0  0  0  0  0  0  0  0
   27.1421   27.0817   12.8118 H   0  0  0  0  0  0  0  0  0  0  0  0
   30.1311   23.5882   15.5245 H   0  0  0  0  0  0  0  0  0  0  0  0
   28.1088   28.5451   13.5552 H   0  0  0  0  0  0  0  0  0  0  0  0
   27.0348   28.3053   15.0786 H   0  0  0  0  0  0  0  0  0  0  0  0
   28.2852   30.5307   14.7372 H   0  0  0  0  0  0  0  0  0  0  0  0
   28.2385   29.6922   16.3404 H   0  0  0  0  0  0  0  0  0  0  0  0
   30.4310   29.1361   14.4892 H   0  0  0  0  0  0  0  0  0  0  0  0
   30.4058   30.5955   15.4132 H   0  0  0  0  0  0  0  0  0  0  0  0
   31.6897   28.5040   16.2217 H   0  0  0  0  0  0  0  0  0  0  0  0
   30.8073   29.6552   17.3295 H   0  0  0  0  0  0  0  0  0  0  0  0
   28.9249   28.1966   17.4605 H   0  0  0  0  0  0  0  0  0  0  0  0
   30.4421   27.2541   17.8272 H   0  0  0  0  0  0  0  0  0  0  0  0
   27.0344   24.0682   12.8361 H   0  0  0  0  0  0  0  0  0  0  0  0
   25.3306   27.0096   13.0727 H   0  0  0  0  0  0  0  0  0  0  0  0
   22.8904   27.3028   12.7000 H   0  0  0  0  0  0  0  0  0  0  0  0
   22.7885   23.6062   10.4715 H   0  0  0  0  0  0  0  0  0  0  0  0
   25.2260   23.3101   10.8440 H   0  0  0  0  0  0  0  0  0  0  0  0
   20.7065   25.6946   12.3277 H   0  0  0  0  0  0  0  0  0  0  0  0
   21.0022   26.5664   10.7852 H   0  0  0  0  0  0  0  0  0  0  0  0
   20.8127   24.7801   10.7852 H   0  0  0  0  0  0  0  0  0  0  0  0
   27.3049   24.8429   10.1160 H   0  0  0  0  0  0  0  0  0  0  0  0
   28.7706   25.2097   11.1217 H   0  0  0  0  0  0  0  0  0  0  0  0
   27.3140   22.5312   11.1322 H   0  0  0  0  0  0  0  0  0  0  0  0
   28.7568   22.8979   10.1248 H   0  0  0  0  0  0  0  0  0  0  0  0
   28.5724   23.0321   13.0083 H   0  0  0  0  0  0  0  0  0  0  0  0
  2  1  1  0
  3  2  2  0
  4  3  1  0
  5  4  2  0
  6  5  1  0
  7  6  2  0
  7  2  1  0
  8  7  1  0
  9  8  1  0
 10  9  1  0
 11 10  1  0
 12  6  1  0
 12 11  1  0
 13  1  1  0
 14 13  1  0
 15 14  2  0
 16 15  1  0
 17 16  2  0
 18 17  1  0
 19 18  2  0
 19 14  1  0
 20 17  1  0
 21 13  1  0
 22 21  1  0
 23 22  1  0
  1 24  1  0
  4 25  1  0
  8 26  1  0
  8 27  1  0
  9 28  1  0
  9 29  1  0
 10 30  1  0
 10 31  1  0
 11 32  1  0
 11 33  1  0
 12 34  1  0
 12 35  1  0
 13 36  1  1
 15 37  1  0
 16 38  1  0
 18 39  1  0
 19 40  1  0
 20 41  1  0
 20 42  1  0
 20 43  1  0
 21 44  1  0
 21 45  1  0
 22 46  1  0
 22 47  1  0
 23 48  1  0
M  CHG  1  10   1
M  END
$$$$
=
     RDKit          3D

 15 15  0  0  0  0  0  0  0  0999 V2000
   16.5630   12.9140    3.0040 C   0  0  0  0  0  0  0  0  0  0  0  0
   16.5060   14.2220    3.4730 C   0  0  0  0  0  0  0  0  0  0  0  0
   15.2810   14.7330    3.8840 C   0  0  0  0  0  0  0  0  0  0  0  0
   14.1560   13.9220    3.8110 C   0  0  0  0  0  0  0  0  0  0  0  0
   14.2940   12.6260    3.3300 C   0  0  0  0  0  0  0  0  0  0  0  0
   15.4770   12.1290    2.9320 N   0  0  0  0  0  0  0  0  0  0  0  0
   13.1720   11.7910    3.2480 N   0  0  0  0  0  0  0  0  0  0  0  0
   17.7880   12.3790    2.5850 N   0  0  0  0  0  0  0  0  0  0  0  0
   17.4143   14.8409    3.5178 H   0  0  0  0  0  0  0  0  0  0  0  0
   15.2035   15.7634    4.2612 H   0  0  0  0  0  0  0  0  0  0  0  0
   13.1727   14.2993    4.1285 H   0  0  0  0  0  0  0  0  0  0  0  0
   13.2705   10.8295    2.8919 H   0  0  0  0  0  0  0  0  0  0  0  0
   12.2486   12.1386    3.5438 H   0  0  0  0  0  0  0  0  0  0  0  0
   17.8350   11.4107    2.2369 H   0  0  0  0  0  0  0  0  0  0  0  0
   18.6417   12.9539    2.6250 H   0  0  0  0  0  0  0  0  0  0  0  0
  2  1  2  0
  3  2  1  0
  4  3  2  0
  5  4  1  0
  6  5  2  0
  6  1  1  0
  7  5  1  0
  8  1  1  0
  2  9  1  0
  3 10  1  0
  4 11  1  0
  7 12  1  0
  7 13  1  0
  8 14  1  0
  8 15  1  0
M  END
$$$$
=
     RDKit          3D

 31 33  0  0  0  0  0  0  0  0999 V2000
   18.9830   15.9270    3.8340 C   0  0  0  0  0  0  0  0  0  0  0  0
   19.4660   16.3930    2.6740 N   0  0  0  0  0  0  0  0  0  0  0  0
   20.4030   17.3440    3.0660 O   0  0  0  0  0  0  0  0  0  0  0  0
   20.3880   17.3670    4.4290 C   0  0  0  0  0  0  0  0  0  0  0  0
   19.5250   16.5290    4.9520 N   0  0  0  0  0  0  0  0  0  0  0  0
   21.3050   18.2650    5.2790 C   0  0  0  0  0  0  0  0  0  0  0  0
   22.4620   17.5260    5.9630 C   0  0  0  0  0  0  0  0  0  0  0  0
   23.3730   18.5940    5.5080 N   0  0  0  0  0  4  0  0  0  0  0  0
   22.3970   18.9790    4.4720 C   0  0  0  0  0  0  0  0  0  0  0  0
   17.9350   14.8620    3.9000 C   0  0  0  0  0  0  0  0  0  0  0  0
   16.6290   15.4340    4.0330 O   0  0  0  0  0  0  0  0  0  0  0  0
   13.5650   12.7330    3.2160 C   0  0  0  0  0  0  0  0  0  0  0  0
   13.2620   13.8670    3.9680 C   0  0  0  0  0  0  0  0  0  0  0  0
   14.2580   14.8030    4.2670 C   0  0  0  0  0  0  0  0  0  0  0  0
   15.5640   14.6050    3.8140 C   0  0  0  0  0  0  0  0  0  0  0  0
   15.8590   13.4650    3.0600 C   0  0  0  0  0  0  0  0  0  0  0  0
   14.8660   12.5310    2.7610 C   0  0  0  0  0  0  0  0  0  0  0  0
   20.5276   18.8006    5.8436 H   0  0  0  0  0  0  0  0  0  0  0  0
   22.3664   17.4463    7.0559 H   0  0  0  0  0  0  0  0  0  0  0  0
   22.6708   16.4693    5.7398 H   0  0  0  0  0  0  0  0  0  0  0  0
   23.5502   19.3247    6.2120 H   0  0  0  0  0  0  0  0  0  0  0  0
   24.3472   18.3769    5.2535 H   0  0  0  0  0  0  0  0  0  0  0  0
   22.5896   18.5400    3.4820 H   0  0  0  0  0  0  0  0  0  0  0  0
   22.2802   20.0290    4.1655 H   0  0  0  0  0  0  0  0  0  0  0  0
   17.9729   14.2626    2.9785 H   0  0  0  0  0  0  0  0  0  0  0  0
   18.1320   14.2308    4.7790 H   0  0  0  0  0  0  0  0  0  0  0  0
   12.7790   11.9998    2.9826 H   0  0  0  0  0  0  0  0  0  0  0  0
   12.2349   14.0267    4.3280 H   0  0  0  0  0  0  0  0  0  0  0  0
   14.0119   15.6963    4.8599 H   0  0  0  0  0  0  0  0  0  0  0  0
   16.8851   13.3025    2.6985 H   0  0  0  0  0  0  0  0  0  0  0  0
   15.1101   11.6376    2.1675 H   0  0  0  0  0  0  0  0  0  0  0  0
  2  1  2  0
  3  2  1  0
  4  3  1  0
  5  1  1  0
  5  4  2  0
  6  4  1  0
  7  6  1  0
  8  7  1  0
  9  6  1  0
  9  8  1  0
 10  1  1  0
 11 10  1  0
 13 12  2  0
 14 13  1  0
 15 14  2  0
 15 11  1  0
 16 15  1  0
 17 16  2  0
 17 12  1  0
  6 18  1  0
  7 19  1  0
  7 20  1  0
  8 21  1  0
  8 22  1  0
  9 23  1  0
  9 24  1  0
 10 25  1  0
 10 26  1  0
 12 27  1  0
 13 28  1  0
 14 29  1  0
 16 30  1  0
 17 31  1  0
M  CHG  1   8   1
M  END
$$$$
=
     RDKit          3D

 42 44  0  0  0  0  0  0  0  0999 V2000
   18.6900   14.2300    3.1350 O   0  0  0  0  0  0  0  0  0  0  0  0
   18.2350   14.7970    4.1210 C   0  0  0  0  0  0  0  0  0  0  0  0
   16.7160   14.9180    4.3940 C   0  0  1  0  0  0  0  0  0  0  0  0
   16.4160   16.3240    4.8950 N   0  0  0  0  0  4  0  0  0  0  0  0
   17.1430   16.6920    6.1530 C   0  0  0  0  0  0  0  0  0  0  0  0
   18.4190   15.8540    6.3530 C   0  0  0  0  0  0  0  0  0  0  0  0
   19.0300   15.4060    5.0990 N   0  0  0  0  0  0  0  0  0  0  0  0
   20.4770   15.1770    5.0760 C   0  0  0  0  0  0  0  0  0  0  0  0
   21.2620   16.4590    4.9990 C   0  0  0  0  0  0  0  0  0  0  0  0
   22.1750   16.8080    6.0040 C   0  0  0  0  0  0  0  0  0  0  0  0
   22.8910   18.0060    5.9240 C   0  0  0  0  0  0  0  0  0  0  0  0
   22.6990   18.8680    4.8450 C   0  0  0  0  0  0  0  0  0  0  0  0
   21.7900   18.5350    3.8430 C   0  0  0  0  0  0  0  0  0  0  0  0
   21.0820   17.3400    3.9290 C   0  0  0  0  0  0  0  0  0  0  0  0
   20.1910   17.0440    2.9700 F   0  0  0  0  0  0  0  0  0  0  0  0
   15.8820   14.6100    3.1370 C   0  0  0  0  0  0  0  0  0  0  0  0
   14.4950   14.0940    3.4470 C   0  0  0  0  0  0  0  0  0  0  0  0
   13.6020   14.8700    4.1980 C   0  0  0  0  0  0  0  0  0  0  0  0
   12.3220   14.3890    4.4910 C   0  0  0  0  0  0  0  0  0  0  0  0
   11.9210   13.1320    4.0410 C   0  0  0  0  0  0  0  0  0  0  0  0
   12.7980   12.3510    3.2930 C   0  0  0  0  0  0  0  0  0  0  0  0
   14.0690   12.8360    3.0050 C   0  0  0  0  0  0  0  0  0  0  0  0
   14.8930   12.0930    2.2520 F   0  0  0  0  0  0  0  0  0  0  0  0
   16.4373   14.1762    5.1569 H   0  0  0  0  0  0  0  0  0  0  0  0
   16.6828   16.9936    4.1592 H   0  0  0  0  0  0  0  0  0  0  0  0
   15.4098   16.3538    5.1132 H   0  0  0  0  0  0  0  0  0  0  0  0
   17.4214   17.7550    6.1033 H   0  0  0  0  0  0  0  0  0  0  0  0
   16.4718   16.4934    7.0016 H   0  0  0  0  0  0  0  0  0  0  0  0
   19.1535   16.4642    6.8990 H   0  0  0  0  0  0  0  0  0  0  0  0
   18.1276   14.9513    6.9100 H   0  0  0  0  0  0  0  0  0  0  0  0
   20.7642   14.6420    5.9932 H   0  0  0  0  0  0  0  0  0  0  0  0
   20.7082   14.5888    4.1757 H   0  0  0  0  0  0  0  0  0  0  0  0
   22.3289   16.1352    6.8605 H   0  0  0  0  0  0  0  0  0  0  0  0
   23.6084   18.2696    6.7151 H   0  0  0  0  0  0  0  0  0  0  0  0
   23.2644   19.8096    4.7849 H   0  0  0  0  0  0  0  0  0  0  0  0
   21.6331   19.2117    2.9901 H   0  0  0  0  0  0  0  0  0  0  0  0
   15.7865   15.5336    2.5472 H   0  0  0  0  0  0  0  0  0  0  0  0
   16.4075   13.8164    2.5856 H   0  0  0  0  0  0  0  0  0  0  0  0
   13.9094   15.8626    4.5589 H   0  0  0  0  0  0  0  0  0  0  0  0
   11.6275   15.0061    5.0800 H   0  0  0  0  0  0  0  0  0  0  0  0
   10.9137   12.7579    4.2764 H   0  0  0  0  0  0  0  0  0  0  0  0
   12.4881   11.3589    2.9330 H   0  0  0  0  0  0  0  0  0  0  0  0
  2  1  2  0
  3  2  1  0
  4  3  1  0
  5  4  1  0
  6  5  1  0
  7  2  1  0
  7  6  1  0
  8  7  1  0
  9  8  1  0
 10  9  2  0
 11 10  1  0
 12 11  2  0
 13 12  1  0
 14 13  2  0
 14  9  1  0
 15 14  1  0
 16  3  1  0
 17 16  1  0
 18 17  2  0
 19 18  1  0
 20 19  2  0
 21 20  1  0
 22 21  2  0
 22 17  1  0
 23 22  1  0
  3 24  1  1
  4 25  1  0
  4 26  1  0
  5 27  1  0
  5 28  1  0
  6 29  1  0
  6 30  1  0
  8 31  1  0
  8 32  1  0
 10 33  1  0
 11 34  1  0
 12 35  1  0
 13 36  1  0
 16 37  1  0
 16 38  1  0
 18 39  1  0
 19 40  1  0
 20 41  1  0
 21 42  1  0
M  CHG  1   4   1
M  END
$$$$
=
     RDKit          3D

 45 46  0  0  0  0  0  0  0  0999 V2000
   13.9980   14.3170    4.1590 C   0  0  0  0  0  0  0  0  0  0  0  0
   14.6520   15.5100    4.4420 C   0  0  0  0  0  0  0  0  0  0  0  0
   15.9630   15.7270    4.2260 N   0  0  0  0  0  0  0  0  0  0  0  0
   16.7120   14.7460    3.6760 C   0  0  0  0  0  0  0  0  0  0  0  0
   16.1400   13.5150    3.3270 C   0  0  0  0  0  0  0  0  0  0  0  0
   14.7750   13.3070    3.5870 C   0  0  0  0  0  0  0  0  0  0  0  0
   16.9480   12.4180    2.6890 C   0  0  0  0  0  0  0  0  0  0  0  0
   18.0850   14.9760    3.4660 N   0  0  0  0  0  0  0  0  0  0  0  0
   18.3780   16.3920    3.1170 C   0  0  0  0  0  0  0  0  0  0  0  0
   18.8530   17.2200    4.3220 C   0  0  0  0  0  0  0  0  0  0  0  0
   20.0400   16.6350    4.9580 N   0  0  0  0  0  0  0  0  0  0  0  0
   20.2150   15.1880    4.7870 C   0  0  0  0  0  0  0  0  0  0  0  0
   18.8690   14.4580    4.6170 C   0  0  0  0  0  0  0  0  0  0  0  0
   20.8890   17.4640    5.6670 C   0  0  0  0  0  0  0  0  0  0  0  0
   20.6480   18.6560    5.8480 O   0  0  0  0  0  0  0  0  0  0  0  0
   22.1430   16.8430    6.2300 C   0  0  0  0  0  0  0  0  0  0  0  0
   12.5260   14.1930    4.4450 C   0  0  2  0  0  0  0  0  0  0  0  0
   12.2360   13.5010    5.7320 N   0  0  0  0  0  4  0  0  0  0  0  0
   10.2020   13.6430    3.4310 C   0  0  0  0  0  0  0  0  0  0  0  0
   11.7180   13.5450    3.3090 C   0  0  0  0  0  0  0  0  0  0  0  0
   14.0593   16.3314    4.8709 H   0  0  0  0  0  0  0  0  0  0  0  0
   14.3140   12.3399    3.3378 H   0  0  0  0  0  0  0  0  0  0  0  0
   17.4058   11.7965    3.4727 H   0  0  0  0  0  0  0  0  0  0  0  0
   16.2914   11.7950    2.0639 H   0  0  0  0  0  0  0  0  0  0  0  0
   17.7377   12.8603    2.0639 H   0  0  0  0  0  0  0  0  0  0  0  0
   19.1645   16.4083    2.3482 H   0  0  0  0  0  0  0  0  0  0  0  0
   17.4421   16.8429    2.7554 H   0  0  0  0  0  0  0  0  0  0  0  0
   19.0979   18.2364    3.9801 H   0  0  0  0  0  0  0  0  0  0  0  0
   18.0420   17.2346    5.0650 H   0  0  0  0  0  0  0  0  0  0  0  0
   20.8314   15.0083    3.8938 H   0  0  0  0  0  0  0  0  0  0  0  0
   20.7011   14.7960    5.6926 H   0  0  0  0  0  0  0  0  0  0  0  0
   19.0654   13.3875    4.4574 H   0  0  0  0  0  0  0  0  0  0  0  0
   18.2779   14.6278    5.5290 H   0  0  0  0  0  0  0  0  0  0  0  0
   22.1009   16.8638    7.3290 H   0  0  0  0  0  0  0  0  0  0  0  0
   22.2227   15.8013    5.8858 H   0  0  0  0  0  0  0  0  0  0  0  0
   23.0199   17.4110    5.8858 H   0  0  0  0  0  0  0  0  0  0  0  0
   12.1907   15.2372    4.5296 H   0  0  0  0  0  0  0  0  0  0  0  0
   12.4934   14.1153    6.5177 H   0  0  0  0  0  0  0  0  0  0  0  0
   11.2314   13.2797    5.7841 H   0  0  0  0  0  0  0  0  0  0  0  0
   12.7827   12.6296    5.7841 H   0  0  0  0  0  0  0  0  0  0  0  0
    9.9201   13.6612    4.4941 H   0  0  0  0  0  0  0  0  0  0  0  0
    9.8538   14.5655    2.9435 H   0  0  0  0  0  0  0  0  0  0  0  0
    9.7379   12.7730    2.9435 H   0  0  0  0  0  0  0  0  0  0  0  0
   11.9849   12.4785    3.2713 H   0  0  0  0  0  0  0  0  0  0  0  0
   11.9804   14.1055    2.3996 H   0  0  0  0  0  0  0  0  0  0  0  0
  2  1  2  0
  3  2  1  0
  4  3  2  0
  5  4  1  0
  6  5  2  0
  6  1  1  0
  7  5  1  0
  8  4  1  0
  9  8  1  0
 10  9  1  0
 11 10  1  0
 12 11  1  0
 13 12  1  0
 13  8  1  0
 14 11  1  0
 15 14  2  0
 16 14  1  0
 17  1  1  0
 18 17  1  0
 20 19  1  0
 20 17  1  0
  2 21  1  0
  6 22  1  0
  7 23  1  0
  7 24  1  0
  7 25  1  0
  9 26  1  0
  9 27  1  0
 10 28  1  0
 10 29  1  0
 12 30  1  0
 12 31  1  0
 13 32  1  0
 13 33  1  0
 16 34  1  0
 16 35  1  0
 16 36  1  0
 17 37  1  1
 18 38  1  0
 18 39  1  0
 18 40  1  0
 19 41  1  0
 19 42  1  0
 19 43  1  0
 20 44  1  0
 20 45  1  0
M  CHG  1  18   1
M  END
$$$$
=
     RDKit          3D

 31 31  0  0  0  0  0  0  0  0999 V2000
   20.0950   15.0760    4.9980 C   0  0  0  0  0  0  0  0  0  0  0  0
   16.3990   14.9360    4.0660 C   0  0  0  0  0  0  0  0  0  0  0  0
   15.8290   15.6000    5.1540 C   0  0  0  0  0  0  0  0  0  0  0  0
   16.6250   16.0690    6.1970 C   0  0  0  0  0  0  0  0  0  0  0  0
   18.0060   15.8860    6.1560 C   0  0  0  0  0  0  0  0  0  0  0  0
   18.5970   15.2310    5.0660 C   0  0  0  0  0  0  0  0  0  0  0  0
   17.7830   14.7580    4.0220 C   0  0  0  0  0  0  0  0  0  0  0  0
   15.5330   13.1600    2.7360 C   0  0  0  0  0  0  0  0  0  0  0  0
   15.5040   14.5290    3.1170 O   0  0  0  0  0  0  0  0  0  0  0  0
   20.7120   15.1890    6.3930 C   0  0  0  0  0  0  0  0  0  0  0  0
   21.9100   16.0890    6.3940 N   0  0  0  0  0  4  0  0  0  0  0  0
   22.0880   16.9620    5.1670 C   0  0  0  0  0  0  0  0  0  0  0  0
   21.7180   18.4160    5.4670 C   0  0  0  0  0  0  0  0  0  0  0  0
   20.3600   18.4980    5.4850 F   0  0  0  0  0  0  0  0  0  0  0  0
   22.1530   19.2120    4.4680 F   0  0  0  0  0  0  0  0  0  0  0  0
   20.3375   14.0903    4.5742 H   0  0  0  0  0  0  0  0  0  0  0  0
   20.5056   15.8748    4.3630 H   0  0  0  0  0  0  0  0  0  0  0  0
   14.7404   15.7544    5.1881 H   0  0  0  0  0  0  0  0  0  0  0  0
   16.1635   16.5836    7.0527 H   0  0  0  0  0  0  0  0  0  0  0  0
   18.6335   16.2560    6.9802 H   0  0  0  0  0  0  0  0  0  0  0  0
   18.2401   14.2437    3.1638 H   0  0  0  0  0  0  0  0  0  0  0  0
   15.5464   12.5289    3.6368 H   0  0  0  0  0  0  0  0  0  0  0  0
   14.6396   12.9268    2.1381 H   0  0  0  0  0  0  0  0  0  0  0  0
   16.4355   12.9648    2.1381 H   0  0  0  0  0  0  0  0  0  0  0  0
   19.9593   15.5955    7.0846 H   0  0  0  0  0  0  0  0  0  0  0  0
   21.0344   14.1860    6.7093 H   0  0  0  0  0  0  0  0  0  0  0  0
   21.8377   16.7087    7.2136 H   0  0  0  0  0  0  0  0  0  0  0  0
   22.7274   15.4625    6.4094 H   0  0  0  0  0  0  0  0  0  0  0  0
   23.1386   16.9179    4.8441 H   0  0  0  0  0  0  0  0  0  0  0  0
   21.4237   16.5890    4.3735 H   0  0  0  0  0  0  0  0  0  0  0  0
   22.1669   18.7265    6.4220 H   0  0  0  0  0  0  0  0  0  0  0  0
  3  2  2  0
  4  3  1  0
  5  4  2  0
  6  1  1  0
  6  5  1  0
  7  6  2  0
  7  2  1  0
  9  8  1  0
  9  2  1  0
 10  1  1  0
 11 10  1  0
 12 11  1  0
 13 12  1  0
 14 13  1  0
 15 13  1  0
  1 16  1  0
  1 17  1  0
  3 18  1  0
  4 19  1  0
  5 20  1  0
  7 21  1  0
  8 22  1  0
  8 23  1  0
  8 24  1  0
 10 25  1  0
 10 26  1  0
 11 27  1  0
 11 28  1  0
 12 29  1  0
 12 30  1  0
 13 31  1  0
M  CHG  1  11   1
M  END
$$$$
=
     RDKit          3D

 48 49  0  0  0  0  0  0  0  0999 V2000
   19.9990   14.8840    5.6350 C   0  0  2  0  0  0  0  0  0  0  0  0
   19.8670   15.0960    4.1200 C   0  0  0  0  0  0  0  0  0  0  0  0
   18.8870   16.1970    3.6860 C   0  0  1  0  0  0  0  0  0  0  0  0
   17.6120   15.6620    3.0250 C   0  0  0  0  0  0  0  0  0  0  0  0
   16.7460   14.8650    4.0040 C   0  0  1  0  0  0  0  0  0  0  0  0
   16.4840   15.6720    5.2840 C   0  0  0  0  0  0  0  0  0  0  0  0
   17.7760   16.2040    5.9070 C   0  0  1  0  0  0  0  0  0  0  0  0
   18.7090   15.1050    6.4370 C   0  0  0  0  0  0  0  0  0  0  0  0
   18.4830   17.0130    4.8690 N   0  0  0  0  0  4  0  0  0  0  0  0
   15.5050   14.4510    3.3850 N   0  0  0  0  0  0  0  0  0  0  0  0
   15.3430   13.1940    2.8700 C   0  0  0  0  0  0  0  0  0  0  0  0
   16.2280   12.3540    2.8420 O   0  0  0  0  0  0  0  0  0  0  0  0
   14.0740   13.0590    2.4400 O   0  0  0  0  0  0  0  0  0  0  0  0
   13.0080   12.7180    3.3670 C   0  0  0  0  0  0  0  0  0  0  0  0
   13.4230   11.5700    4.2930 C   0  0  0  0  0  0  0  0  0  0  0  0
   12.5420   13.9480    4.1520 C   0  0  0  0  0  0  0  0  0  0  0  0
   11.8530   12.2370    2.4740 C   0  0  0  0  0  0  0  0  0  0  0  0
   21.1460   15.7180    6.1930 C   0  0  0  0  0  0  0  0  0  0  0  0
   21.4540   15.7490    7.3730 O   0  0  0  0  0  0  0  0  0  0  0  0
   22.1170   17.7460    5.5540 C   0  0  0  0  0  0  0  0  0  0  0  0
   21.7900   16.3950    5.1940 O   0  0  0  0  0  0  0  0  0  0  0  0
   20.2231   13.8145    5.7615 H   0  0  0  0  0  0  0  0  0  0  0  0
   20.8613   15.3538    3.7266 H   0  0  0  0  0  0  0  0  0  0  0  0
   19.4598   14.1560    3.7192 H   0  0  0  0  0  0  0  0  0  0  0  0
   19.4260   16.7989    2.9396 H   0  0  0  0  0  0  0  0  0  0  0  0
   17.0264   16.5119    2.6445 H   0  0  0  0  0  0  0  0  0  0  0  0
   17.9111   14.9863    2.2102 H   0  0  0  0  0  0  0  0  0  0  0  0
   17.2990   13.9561    4.2835 H   0  0  0  0  0  0  0  0  0  0  0  0
   15.8323   16.5235    5.0386 H   0  0  0  0  0  0  0  0  0  0  0  0
   16.0084   15.0011    6.0145 H   0  0  0  0  0  0  0  0  0  0  0  0
   17.5023   16.8086    6.7842 H   0  0  0  0  0  0  0  0  0  0  0  0
   18.9921   15.3693    7.4666 H   0  0  0  0  0  0  0  0  0  0  0  0
   18.1418   14.1658    6.3578 H   0  0  0  0  0  0  0  0  0  0  0  0
   19.3278   17.4251    5.2901 H   0  0  0  0  0  0  0  0  0  0  0  0
   17.8309   17.7394    4.5404 H   0  0  0  0  0  0  0  0  0  0  0  0
   14.7237   15.1200    3.3308 H   0  0  0  0  0  0  0  0  0  0  0  0
   13.3092   11.8847    5.3409 H   0  0  0  0  0  0  0  0  0  0  0  0
   12.7842   10.6952    4.1015 H   0  0  0  0  0  0  0  0  0  0  0  0
   14.4735   11.3059    4.1015 H   0  0  0  0  0  0  0  0  0  0  0  0
   12.6188   13.7454    5.2305 H   0  0  0  0  0  0  0  0  0  0  0  0
   13.1762   14.8091    3.8946 H   0  0  0  0  0  0  0  0  0  0  0  0
   11.4964   14.1727    3.8946 H   0  0  0  0  0  0  0  0  0  0  0  0
   11.0213   11.8906    3.1051 H   0  0  0  0  0  0  0  0  0  0  0  0
   11.5103   13.0672    1.8389 H   0  0  0  0  0  0  0  0  0  0  0  0
   12.2009   11.4090    1.8389 H   0  0  0  0  0  0  0  0  0  0  0  0
   22.1393   17.8383    6.6499 H   0  0  0  0  0  0  0  0  0  0  0  0
   23.1040   18.0061    5.1439 H   0  0  0  0  0  0  0  0  0  0  0  0
   21.3581   18.4286    5.1439 H   0  0  0  0  0  0  0  0  0  0  0  0
  2  1  1  0
  3  2  1  0
  4  3  1  0
  5  4  1  0
  6  5  1  0
  7  6  1  0
  8  7  1  0
  8  1  1  0
  9  3  1  0
  9  7  1  0
 10  5  1  0
 11 10  1  0
 12 11  2  0
 13 11  1  0
 14 13  1  0
 15 14  1  0
 16 14  1  0
 17 14  1  0
 18  1  1  0
 19 18  2  0
 21 18  1  0
 21 20  1  0
  1 22  1  6
  2 23  1  0
  2 24  1  0
  3 25  1  6
  4 26  1  0
  4 27  1  0
  5 28  1  1
  6 29  1  0
  6 30  1  0
  7 31  1  1
  8 32  1  0
  8 33  1  0
  9 34  1  0
  9 35  1  0
 10 36  1  0
 15 37  1  0
 15 38  1  0
 15 39  1  0
 16 40  1  0
 16 41  1  0
 16 42  1  0
 17 43  1  0
 17 44  1  0
 17 45  1  0
 20 46  1  0
 20 47  1  0
 20 48  1  0
M  CHG  1   9   1
M  END
$$$$
=
     RDKit          3D

 36 37  0  0  0  0  0  0  0  0999 V2000
   16.9550   15.4820    3.8420 O   0  0  0  0  0  0  0  0  0  0  0  0
   15.9910   14.5460    3.5910 C   0  0  0  0  0  0  0  0  0  0  0  0
   16.1760   13.3250    2.9530 C   0  0  0  0  0  0  0  0  0  0  0  0
   15.0910   12.4640    2.7620 C   0  0  0  0  0  0  0  0  0  0  0  0
   13.7990   12.8170    3.1700 C   0  0  0  0  0  0  0  0  0  0  0  0
   13.6220   14.0120    3.8870 C   0  0  0  0  0  0  0  0  0  0  0  0
   14.7200   14.8720    4.0700 C   0  0  0  0  0  0  0  0  0  0  0  0
   12.2870   14.4010    4.4580 C   0  0  0  0  0  0  0  0  0  0  0  0
   12.7680   11.8720    3.0500 N   0  0  0  0  0  0  0  0  0  0  0  0
   18.3040   15.1260    3.5750 C   0  0  0  0  0  0  0  0  0  0  0  0
   19.2060   16.9950    2.3130 O   0  0  0  0  0  0  0  0  0  0  0  0
   19.2710   16.2980    3.3260 C   0  0  0  0  0  0  0  0  0  0  0  0
   20.2210   16.5390    4.3120 N   0  0  0  0  0  0  0  0  0  0  0  0
   20.4190   15.7260    5.5150 C   0  0  0  0  0  0  0  0  0  0  0  0
   21.8280   15.9120    6.0860 C   0  0  0  0  0  0  0  0  0  0  0  0
   22.1300   17.2730    6.4130 O   0  0  0  0  0  0  0  0  0  0  0  0
   21.5170   18.2370    5.5460 C   0  0  0  0  0  0  0  0  0  0  0  0
   21.1230   17.6850    4.1730 C   0  0  0  0  0  0  0  0  0  0  0  0
   17.1763   13.0360    2.5983 H   0  0  0  0  0  0  0  0  0  0  0  0
   15.2560   11.4886    2.2810 H   0  0  0  0  0  0  0  0  0  0  0  0
   14.5743   15.8233    4.6027 H   0  0  0  0  0  0  0  0  0  0  0  0
   12.3396   14.3857    5.5566 H   0  0  0  0  0  0  0  0  0  0  0  0
   12.0235   15.4133    4.1176 H   0  0  0  0  0  0  0  0  0  0  0  0
   11.5210   13.6887    4.1176 H   0  0  0  0  0  0  0  0  0  0  0  0
   11.8111   12.1135    3.3449 H   0  0  0  0  0  0  0  0  0  0  0  0
   12.9683   10.9371    2.6670 H   0  0  0  0  0  0  0  0  0  0  0  0
   18.6796   14.5564    4.4378 H   0  0  0  0  0  0  0  0  0  0  0  0
   18.2811   14.5537    2.6359 H   0  0  0  0  0  0  0  0  0  0  0  0
   19.6820   16.0249    6.2749 H   0  0  0  0  0  0  0  0  0  0  0  0
   20.2908   14.6676    5.2440 H   0  0  0  0  0  0  0  0  0  0  0  0
   21.9180   15.3050    6.9990 H   0  0  0  0  0  0  0  0  0  0  0  0
   22.5395   15.5975    5.3083 H   0  0  0  0  0  0  0  0  0  0  0  0
   20.6096   18.6164    6.0387 H   0  0  0  0  0  0  0  0  0  0  0  0
   22.2655   19.0232    5.3679 H   0  0  0  0  0  0  0  0  0  0  0  0
   22.0302   17.3670    3.6383 H   0  0  0  0  0  0  0  0  0  0  0  0
   20.6044   18.4756    3.6109 H   0  0  0  0  0  0  0  0  0  0  0  0
  2  1  1  0
  3  2  2  0
  4  3  1  0
  5  4  2  0
  6  5  1  0
  7  6  2  0
  7  2  1  0
  8  6  1  0
  9  5  1  0
 10  1  1  0
 12 10  1  0
 12 11  2  0
 13 12  1  0
 14 13  1  0
 15 14  1  0
 16 15  1  0
 17 16  1  0
 18 13  1  0
 18 17  1  0
  3 19  1  0
  4 20  1  0
  7 21  1  0
  8 22  1  0
  8 23  1  0
  8 24  1  0
  9 25  1  0
  9 26  1  0
 10 27  1  0
 10 28  1  0
 14 29  1  0
 14 30  1  0
 15 31  1  0
 15 32  1  0
 17 33  1  0
 17 34  1  0
 18 35  1  0
 18 36  1  0
M  END
$$$$
=
     RDKit          3D

 28 29  0  0  0  0  0  0  0  0999 V2000
   20.9760   17.0530    4.5350 C   0  0  2  0  0  0  0  0  0  0  0  0
   22.0890   18.0840    4.6260 C   0  0  0  0  0  0  0  0  0  0  0  0
   21.5890   19.0680    5.6480 N   0  0  0  0  0  4  0  0  0  0  0  0
   20.0820   19.0090    5.6470 C   0  0  0  0  0  0  0  0  0  0  0  0
   19.7290   17.9290    4.6170 C   0  0  2  0  0  0  0  0  0  0  0  0
   18.4770   17.1970    4.9190 C   0  0  0  0  0  0  0  0  0  0  0  0
   17.5700   17.2600    5.9560 C   0  0  0  0  0  0  0  0  0  0  0  0
   16.5660   16.3060    5.6650 C   0  0  0  0  0  0  0  0  0  0  0  0
   16.9220   15.7240    4.4710 C   0  0  0  0  0  0  0  0  0  0  0  0
   18.0820   16.2610    4.0130 O   0  0  0  0  0  0  0  0  0  0  0  0
   21.1290   16.1050    5.7020 C   0  0  0  0  0  0  0  0  0  0  0  0
   21.7090   16.4200    6.7340 O   0  0  0  0  0  0  0  0  0  0  0  0
   19.7960   14.3620    6.5210 C   0  0  0  0  0  0  0  0  0  0  0  0
   20.5490   14.9120    5.4350 O   0  0  0  0  0  0  0  0  0  0  0  0
   20.9593   16.4189    3.6363 H   0  0  0  0  0  0  0  0  0  0  0  0
   23.0281   17.6176    4.9586 H   0  0  0  0  0  0  0  0  0  0  0  0
   22.3108   18.5551    3.6570 H   0  0  0  0  0  0  0  0  0  0  0  0
   21.9487   18.8180    6.5802 H   0  0  0  0  0  0  0  0  0  0  0  0
   21.9117   20.0190    5.4194 H   0  0  0  0  0  0  0  0  0  0  0  0
   19.7051   18.7320    6.6426 H   0  0  0  0  0  0  0  0  0  0  0  0
   19.6301   19.9807    5.3989 H   0  0  0  0  0  0  0  0  0  0  0  0
   19.4876   18.3635    3.6357 H   0  0  0  0  0  0  0  0  0  0  0  0
   17.6175   17.9203    6.8345 H   0  0  0  0  0  0  0  0  0  0  0  0
   15.6783   16.0760    6.2725 H   0  0  0  0  0  0  0  0  0  0  0  0
   16.3490   14.9362    3.9601 H   0  0  0  0  0  0  0  0  0  0  0  0
   20.2385   14.6852    7.4748 H   0  0  0  0  0  0  0  0  0  0  0  0
   18.7557   14.7143    6.4614 H   0  0  0  0  0  0  0  0  0  0  0  0
   19.8152   13.2638    6.4614 H   0  0  0  0  0  0  0  0  0  0  0  0
  2  1  1  0
  3  2  1  0
  4  3  1  0
  5  1  1  0
  5  4  1  0
  6  5  1  0
  7  6  2  0
  8  7  1  0
  9  8  2  0
 10  9  1  0
 10  6  1  0
 11  1  1  0
 12 11  2  0
 14 13  1  0
 14 11  1  0
  1 15  1  6
  2 16  1  0
  2 17  1  0
  3 18  1  0
  3 19  1  0
  4 20  1  0
  4 21  1  0
  5 22  1  6
  7 23  1  0
  8 24  1  0
  9 25  1  0
 13 26  1  0
 13 27  1  0
 13 28  1  0
M  CHG  1   3   1
M  END
$$$$
=
     RDKit          3D

 32 33  0  0  0  0  0  0  0  0999 V2000
   27.4410   25.2890   14.9860 C   0  0  2  0  0  0  0  0  0  0  0  0
   27.0680   23.8710   14.4640 N   0  0  0  0  0  4  0  0  0  0  0  0
   27.4840   23.6350   13.0460 C   0  0  0  0  0  0  0  0  0  0  0  0
   28.9670   23.9640   12.8940 C   0  0  0  0  0  0  0  0  0  0  0  0
   29.2150   25.3190   13.2750 O   0  0  0  0  0  0  0  0  0  0  0  0
   28.9320   25.5640   14.6690 C   0  0  1  0  0  0  0  0  0  0  0  0
   29.3220   26.9960   14.9630 C   0  0  0  0  0  0  0  0  0  0  0  0
   28.6340   28.0730   14.3790 C   0  0  0  0  0  0  0  0  0  0  0  0
   28.9790   29.3890   14.6900 C   0  0  0  0  0  0  0  0  0  0  0  0
   30.0140   29.6470   15.5870 C   0  0  0  0  0  0  0  0  0  0  0  0
   30.7100   28.5890   16.1680 C   0  0  0  0  0  0  0  0  0  0  0  0
   30.3690   27.2720   15.8580 C   0  0  0  0  0  0  0  0  0  0  0  0
   27.2120   25.3140   16.4900 C   0  0  0  0  0  0  0  0  0  0  0  0
   27.7300   24.4770   17.2220 O   0  0  0  0  0  0  0  0  0  0  0  0
   25.4660   26.7420   15.8500 C   0  0  0  0  0  0  0  0  0  0  0  0
   26.3730   26.3040   16.8660 O   0  0  0  0  0  0  0  0  0  0  0  0
   26.8244   26.0614   14.5030 H   0  0  0  0  0  0  0  0  0  0  0  0
   27.5300   23.1705   15.0613 H   0  0  0  0  0  0  0  0  0  0  0  0
   26.0415   23.7931   14.4982 H   0  0  0  0  0  0  0  0  0  0  0  0
   27.3127   22.5806   12.7834 H   0  0  0  0  0  0  0  0  0  0  0  0
   26.8934   24.2779   12.3768 H   0  0  0  0  0  0  0  0  0  0  0  0
   29.5556   23.2926   13.5366 H   0  0  0  0  0  0  0  0  0  0  0  0
   29.2580   23.8287   11.8419 H   0  0  0  0  0  0  0  0  0  0  0  0
   29.5095   24.8839   15.3124 H   0  0  0  0  0  0  0  0  0  0  0  0
   27.8160   27.8771   13.6702 H   0  0  0  0  0  0  0  0  0  0  0  0
   28.4332   30.2240   14.2264 H   0  0  0  0  0  0  0  0  0  0  0  0
   30.2811   30.6846   15.8360 H   0  0  0  0  0  0  0  0  0  0  0  0
   31.5300   28.7924   16.8725 H   0  0  0  0  0  0  0  0  0  0  0  0
   30.9251   26.4422   16.3187 H   0  0  0  0  0  0  0  0  0  0  0  0
   24.5703   27.1745   16.3198 H   0  0  0  0  0  0  0  0  0  0  0  0
   25.9557   27.5029   15.2245 H   0  0  0  0  0  0  0  0  0  0  0  0
   25.1746   25.8853   15.2245 H   0  0  0  0  0  0  0  0  0  0  0  0
  2  1  1  0
  3  2  1  0
  4  3  1  0
  5  4  1  0
  6  5  1  0
  6  1  1  0
  7  6  1  0
  8  7  2  0
  9  8  1  0
 10  9  2  0
 11 10  1  0
 12  7  1  0
 12 11  2  0
 13  1  1  0
 14 13  2  0
 16 15  1  0
 16 13  1  0
  1 17  1  6
  2 18  1  0
  2 19  1  0
  3 20  1  0
  3 21  1  0
  4 22  1  0
  4 23  1  0
  6 24  1  1
  8 25  1  0
  9 26  1  0
 10 27  1  0
 11 28  1  0
 12 29  1  0
 15 30  1  0
 15 31  1  0
 15 32  1  0
M  CHG  1   2   1
M  END
$$$$
=
     RDKit          3D

 30 31  0  0  0  0  0  0  0  0999 V2000
   15.2030   14.2520    3.8570 C   0  0  0  0  0  0  0  0  0  0  0  0
   14.8270   15.3550    4.6370 C   0  0  0  0  0  0  0  0  0  0  0  0
   15.7860   16.2740    5.0680 C   0  0  0  0  0  0  0  0  0  0  0  0
   17.1290   16.0880    4.7470 C   0  0  0  0  0  0  0  0  0  0  0  0
   17.5120   14.9820    3.9930 C   0  0  0  0  0  0  0  0  0  0  0  0
   16.5540   14.0860    3.5180 C   0  0  0  0  0  0  0  0  0  0  0  0
   14.2050   13.2080    3.4620 C   0  0  0  0  0  0  0  0  0  0  0  0
   14.8680   12.1410    2.6800 N   0  0  0  0  0  4  0  0  0  0  0  0
   18.8390   14.8500    3.6720 O   0  0  0  0  0  0  0  0  0  0  0  0
   19.7700   15.3720    4.5650 C   0  0  0  0  0  0  0  0  0  0  0  0
   19.9030   14.7040    5.7750 C   0  0  0  0  0  0  0  0  0  0  0  0
   20.7830   15.0910    6.7260 N   0  0  0  0  0  0  0  0  0  0  0  0
   21.5360   16.1690    6.4100 C   0  0  0  0  0  0  0  0  0  0  0  0
   21.4110   16.8500    5.2010 C   0  0  0  0  0  0  0  0  0  0  0  0
   20.5090   16.4720    4.2550 N   0  0  0  0  0  0  0  0  0  0  0  0
   22.2880   18.0270    4.9100 C   0  0  0  0  0  0  0  0  0  0  0  0
   13.7711   15.4971    4.9108 H   0  0  0  0  0  0  0  0  0  0  0  0
   15.4802   17.1474    5.6627 H   0  0  0  0  0  0  0  0  0  0  0  0
   17.8837   16.8121    5.0879 H   0  0  0  0  0  0  0  0  0  0  0  0
   16.8590   13.2467    2.8756 H   0  0  0  0  0  0  0  0  0  0  0  0
   13.7577   12.7713    4.3671 H   0  0  0  0  0  0  0  0  0  0  0  0
   13.4223   13.6733    2.8449 H   0  0  0  0  0  0  0  0  0  0  0  0
   15.2927   11.4575    3.3230 H   0  0  0  0  0  0  0  0  0  0  0  0
   14.1721   11.6675    2.0864 H   0  0  0  0  0  0  0  0  0  0  0  0
   15.6007   12.5552    2.0864 H   0  0  0  0  0  0  0  0  0  0  0  0
   19.2682   13.8264    5.9673 H   0  0  0  0  0  0  0  0  0  0  0  0
   22.2794   16.5235    7.1391 H   0  0  0  0  0  0  0  0  0  0  0  0
   22.6234   18.4771    5.8560 H   0  0  0  0  0  0  0  0  0  0  0  0
   23.1628   17.6979    4.3300 H   0  0  0  0  0  0  0  0  0  0  0  0
   21.7224   18.7712    4.3300 H   0  0  0  0  0  0  0  0  0  0  0  0
  2  1  2  0
  3  2  1  0
  4  3  2  0
  5  4  1  0
  6  1  1  0
  6  5  2  0
  7  1  1  0
  8  7  1  0
  9  5  1  0
 10  9  1  0
 11 10  2  0
 12 11  1  0
 13 12  2  0
 14 13  1  0
 15 10  1  0
 15 14  2  0
 16 14  1  0
  2 17  1  0
  3 18  1  0
  4 19  1  0
  6 20  1  0
  7 21  1  0
  7 22  1  0
  8 23  1  0
  8 24  1  0
  8 25  1  0
 11 26  1  0
 13 27  1  0
 16 28  1  0
 16 29  1  0
 16 30  1  0
M  CHG  1   8   1
M  END
$$$$
=
     RDKit          3D

 38 40  0  0  0  0  0  0  0  0999 V2000
   18.0780   14.8950    3.8610 C   0  0  0  0  0  0  0  0  0  0  0  0
   18.2280   16.0490    3.1210 N   0  0  0  0  0  0  0  0  0  0  0  0
   18.8890   16.9370    3.8480 N   0  0  0  0  0  0  0  0  0  0  0  0
   19.1700   16.3560    5.0310 N   0  0  0  0  0  0  0  0  0  0  0  0
   18.6920   15.0900    5.0870 C   0  0  0  0  0  0  0  0  0  0  0  0
   19.9460   17.0770    6.0340 C   0  0  0  0  0  0  0  0  0  0  0  0
   21.2250   16.3150    6.3960 C   0  0  0  0  0  0  0  0  0  0  0  0
   22.2500   16.2590    5.2640 C   0  0  0  0  0  0  0  0  0  0  0  0
   22.0350   17.3630    4.2850 N   0  0  0  0  0  4  0  0  0  0  0  0
   21.6190   18.6560    4.8830 C   0  0  0  0  0  0  0  0  0  0  0  0
   20.2700   18.5140    5.5860 C   0  0  0  0  0  0  0  0  0  0  0  0
   18.1110   12.7100    3.0430 O   0  0  0  0  0  0  0  0  0  0  0  0
   17.4260   13.6580    3.4270 C   0  0  0  0  0  0  0  0  0  0  0  0
   16.0440   13.5800    3.4480 N   0  0  0  0  0  0  0  0  0  0  0  0
   15.0900   14.5450    3.9770 C   0  0  0  0  0  0  0  0  0  0  0  0
   13.7670   13.7920    4.0230 C   0  0  0  0  0  0  0  0  0  0  0  0
   13.9030   12.7880    2.8870 C   0  0  0  0  0  0  0  0  0  0  0  0
   15.3670   12.3860    2.9700 C   0  0  0  0  0  0  0  0  0  0  0  0
   18.7733   14.3762    5.9200 H   0  0  0  0  0  0  0  0  0  0  0  0
   19.3217   17.1479    6.9369 H   0  0  0  0  0  0  0  0  0  0  0  0
   21.6904   16.8096    7.2613 H   0  0  0  0  0  0  0  0  0  0  0  0
   20.9298   15.2778    6.6129 H   0  0  0  0  0  0  0  0  0  0  0  0
   23.2601   16.3493    5.6901 H   0  0  0  0  0  0  0  0  0  0  0  0
   22.1347   15.3000    4.7376 H   0  0  0  0  0  0  0  0  0  0  0  0
   22.9171   17.5152    3.7755 H   0  0  0  0  0  0  0  0  0  0  0  0
   21.2596   17.0631    3.6770 H   0  0  0  0  0  0  0  0  0  0  0  0
   22.3758   18.9762    5.6142 H   0  0  0  0  0  0  0  0  0  0  0  0
   21.5243   19.4033    4.0814 H   0  0  0  0  0  0  0  0  0  0  0  0
   20.2736   19.1612    6.4754 H   0  0  0  0  0  0  0  0  0  0  0  0
   19.4988   18.8016    4.8563 H   0  0  0  0  0  0  0  0  0  0  0  0
   15.3862   14.8714    4.9848 H   0  0  0  0  0  0  0  0  0  0  0  0
   15.0312   15.4542    3.3606 H   0  0  0  0  0  0  0  0  0  0  0  0
   13.6366   13.2811    4.9884 H   0  0  0  0  0  0  0  0  0  0  0  0
   12.8911   14.4490    3.9175 H   0  0  0  0  0  0  0  0  0  0  0  0
   13.2441   11.9210    3.0428 H   0  0  0  0  0  0  0  0  0  0  0  0
   13.6174   13.1968    1.9065 H   0  0  0  0  0  0  0  0  0  0  0  0
   15.5024   11.5531    3.6756 H   0  0  0  0  0  0  0  0  0  0  0  0
   15.7617   12.0391    2.0036 H   0  0  0  0  0  0  0  0  0  0  0  0
  2  1  1  0
  3  2  2  0
  4  3  1  0
  5  1  2  0
  5  4  1  0
  6  4  1  0
  7  6  1  0
  8  7  1  0
  9  8  1  0
 10  9  1  0
 11 10  1  0
 11  6  1  0
 13 12  2  0
 13  1  1  0
 14 13  1  0
 15 14  1  0
 16 15  1  0
 17 16  1  0
 18 17  1  0
 18 14  1  0
  5 19  1  0
  6 20  1  0
  7 21  1  0
  7 22  1  0
  8 23  1  0
  8 24  1  0
  9 25  1  0
  9 26  1  0
 10 27  1  0
 10 28  1  0
 11 29  1  0
 11 30  1  0
 15 31  1  0
 15 32  1  0
 16 33  1  0
 16 34  1  0
 17 35  1  0
 17 36  1  0
 18 37  1  0
 18 38  1  0
M  CHG  1   9   1
M  END
$$$$
=
     RDKit          3D

 30 31  0  0  0  0  0  0  0  0999 V2000
   13.6110   13.6820    3.8940 C   0  0  0  0  0  0  0  0  0  0  0  0
   14.5570   12.6140    3.3540 C   0  0  0  0  0  0  0  0  0  0  0  0
   15.7600   13.2350    2.6650 C   0  0  0  0  0  0  0  0  0  0  0  0
   16.4320   14.1800    3.5880 N   0  0  0  0  0  4  0  0  0  0  0  0
   15.5700   15.2690    4.1640 C   0  0  1  0  0  0  0  0  0  0  0  0
   14.3420   14.6380    4.8330 C   0  0  0  0  0  0  0  0  0  0  0  0
   16.3960   16.1440    5.1310 C   0  0  0  0  0  0  0  0  0  0  0  0
   17.8750   15.8320    5.1580 C   0  0  0  0  0  0  0  0  0  0  0  0
   18.4610   15.3330    6.3180 C   0  0  0  0  0  0  0  0  0  0  0  0
   19.8320   15.0940    6.3260 C   0  0  0  0  0  0  0  0  0  0  0  0
   20.5820   15.3690    5.1910 C   0  0  0  0  0  0  0  0  0  0  0  0
   19.9290   15.8780    4.0830 C   0  0  0  0  0  0  0  0  0  0  0  0
   18.5940   16.1230    4.0350 N   0  0  0  0  0  0  0  0  0  0  0  0
   13.1956   14.2537    3.0510 H   0  0  0  0  0  0  0  0  0  0  0  0
   12.8071   13.1851    4.4569 H   0  0  0  0  0  0  0  0  0  0  0  0
   14.9062   11.9898    4.1897 H   0  0  0  0  0  0  0  0  0  0  0  0
   14.0101   12.0088    2.6160 H   0  0  0  0  0  0  0  0  0  0  0  0
   16.4655   12.4420    2.3762 H   0  0  0  0  0  0  0  0  0  0  0  0
   15.4262   13.7773    1.7681 H   0  0  0  0  0  0  0  0  0  0  0  0
   16.8154   13.6341    4.3728 H   0  0  0  0  0  0  0  0  0  0  0  0
   17.1435   14.6620    3.0202 H   0  0  0  0  0  0  0  0  0  0  0  0
   15.2089   15.9360    3.3673 H   0  0  0  0  0  0  0  0  0  0  0  0
   14.6689   14.0812    5.7236 H   0  0  0  0  0  0  0  0  0  0  0  0
   13.6478   15.4471    5.1041 H   0  0  0  0  0  0  0  0  0  0  0  0
   16.2730   17.1954    4.8318 H   0  0  0  0  0  0  0  0  0  0  0  0
   16.0157   15.9344    6.1417 H   0  0  0  0  0  0  0  0  0  0  0  0
   17.8518   15.1314    7.2115 H   0  0  0  0  0  0  0  0  0  0  0  0
   20.3181   14.6897    7.2261 H   0  0  0  0  0  0  0  0  0  0  0  0
   21.6667   15.1870    5.1731 H   0  0  0  0  0  0  0  0  0  0  0  0
   20.5272   16.0977    3.1864 H   0  0  0  0  0  0  0  0  0  0  0  0
  2  1  1  0
  3  2  1  0
  4  3  1  0
  5  4  1  0
  6  5  1  0
  6  1  1  0
  7  5  1  0
  8  7  1  0
  9  8  2  0
 10  9  1  0
 11 10  2  0
 12 11  1  0
 13 12  2  0
 13  8  1  0
  1 14  1  0
  1 15  1  0
  2 16  1  0
  2 17  1  0
  3 18  1  0
  3 19  1  0
  4 20  1  0
  4 21  1  0
  5 22  1  6
  6 23  1  0
  6 24  1  0
  7 25  1  0
  7 26  1  0
  9 27  1  0
 10 28  1  0
 11 29  1  0
 12 30  1  0
M  CHG  1   4   1
M  END
$$$$
=
     RDKit          3D

 20 20  0  0  0  0  0  0  0  0999 V2000
   13.8260   13.2700    3.4450 C   0  0  0  0  0  0  0  0  0  0  0  0
   14.8100   12.4400    2.8910 C   0  0  0  0  0  0  0  0  0  0  0  0
   16.1550   12.8330    2.9030 C   0  0  0  0  0  0  0  0  0  0  0  0
   16.5190   14.0660    3.4650 C   0  0  0  0  0  0  0  0  0  0  0  0
   15.5480   14.9090    4.0130 C   0  0  0  0  0  0  0  0  0  0  0  0
   14.2190   14.5000    3.9900 C   0  0  0  0  0  0  0  0  0  0  0  0
   13.2810   15.2940    4.5250 F   0  0  0  0  0  0  0  0  0  0  0  0
   17.9290   14.4750    3.4800 N   0  0  0  0  0  4  0  0  0  0  0  0
   18.7740   13.6110    3.2170 O   0  0  0  0  0  0  0  0  0  0  0  0
   18.1780   15.6570    3.7470 O   0  0  0  0  0  1  0  0  0  0  0  0
   12.3730   12.8930    3.4050 C   0  0  0  0  0  0  0  0  0  0  0  0
   12.0820   11.7760    2.4750 N   0  0  0  0  0  4  0  0  0  0  0  0
   14.5253   11.4757    2.4448 H   0  0  0  0  0  0  0  0  0  0  0  0
   16.9246   12.1756    2.4723 H   0  0  0  0  0  0  0  0  0  0  0  0
   15.8295   15.8767    4.4537 H   0  0  0  0  0  0  0  0  0  0  0  0
   12.0618   12.5947    4.4170 H   0  0  0  0  0  0  0  0  0  0  0  0
   11.8186   13.7712    3.0426 H   0  0  0  0  0  0  0  0  0  0  0  0
   11.8610   10.9277    3.0158 H   0  0  0  0  0  0  0  0  0  0  0  0
   11.2776   12.0241    1.8815 H   0  0  0  0  0  0  0  0  0  0  0  0
   12.9052   11.6001    1.8815 H   0  0  0  0  0  0  0  0  0  0  0  0
  2  1  2  0
  3  2  1  0
  4  3  2  0
  5  4  1  0
  6  5  2  0
  6  1  1  0
  7  6  1  0
  8  4  1  0
  9  8  2  0
 10  8  1  0
 11  1  1  0
 12 11  1  0
  2 13  1  0
  3 14  1  0
  5 15  1  0
 11 16  1  0
 11 17  1  0
 12 18  1  0
 12 19  1  0
 12 20  1  0
M  CHG  3   8   1  10  -1  12   1
M  END
$$$$
=
     RDKit          3D

 43 43  0  0  0  0  0  0  0  0999 V2000
   18.4740   15.5640    5.4820 N   0  0  0  0  0  0  0  0  0  0  0  0
   19.7150   15.1650    5.0540 C   0  0  0  0  0  0  0  0  0  0  0  0
   20.0030   14.9020    3.8860 O   0  0  0  0  0  0  0  0  0  0  0  0
   17.3730   15.7560    4.5500 C   0  0  0  0  0  0  0  0  0  0  0  0
   16.0970   16.1760    5.2770 C   0  0  0  0  0  0  0  0  0  0  0  0
   15.0500   15.0610    5.3640 C   0  0  0  0  0  0  0  0  0  0  0  0
   13.9800   15.1520    4.2740 C   0  0  0  0  0  0  0  0  0  0  0  0
   13.4880   13.7840    3.7900 C   0  0  0  0  0  0  0  0  0  0  0  0
   14.5520   12.6860    3.6930 C   0  0  0  0  0  0  0  0  0  0  0  0
   16.9300   12.5070    2.7870 C   0  0  0  0  0  0  0  0  0  0  0  0
   15.4640   12.7530    2.4660 C   0  0  0  0  0  0  0  0  0  0  0  0
   20.7890   15.0420    6.1300 C   0  0  0  0  0  0  0  0  0  0  0  0
   21.9860   15.8650    5.7320 N   0  0  0  0  0  4  0  0  0  0  0  0
   21.8820   17.3020    5.9860 C   0  0  0  0  0  0  0  0  0  0  0  0
   21.7540   18.1870    4.7810 C   0  0  0  0  0  0  0  0  0  0  0  0
   23.0380   18.1580    5.5620 C   0  0  0  0  0  0  0  0  0  0  0  0
   18.3180   15.7315    6.4862 H   0  0  0  0  0  0  0  0  0  0  0  0
   17.6477   16.5385    3.8273 H   0  0  0  0  0  0  0  0  0  0  0  0
   17.1821   14.8019    4.0370 H   0  0  0  0  0  0  0  0  0  0  0  0
   16.3635   16.4843    6.2987 H   0  0  0  0  0  0  0  0  0  0  0  0
   15.6491   16.9970    4.6979 H   0  0  0  0  0  0  0  0  0  0  0  0
   15.5625   14.0922    5.2707 H   0  0  0  0  0  0  0  0  0  0  0  0
   14.5395   15.1670    6.3326 H   0  0  0  0  0  0  0  0  0  0  0  0
   13.1208   15.7101    4.6743 H   0  0  0  0  0  0  0  0  0  0  0  0
   14.4375   15.6572    3.4106 H   0  0  0  0  0  0  0  0  0  0  0  0
   12.7106   13.4393    4.4877 H   0  0  0  0  0  0  0  0  0  0  0  0
   13.1300   13.9431    2.7621 H   0  0  0  0  0  0  0  0  0  0  0  0
   15.1862   12.7497    4.5895 H   0  0  0  0  0  0  0  0  0  0  0  0
   13.9990   11.7392    3.6045 H   0  0  0  0  0  0  0  0  0  0  0  0
   17.0676   12.4839    3.8781 H   0  0  0  0  0  0  0  0  0  0  0  0
   17.2428   11.5438    2.3575 H   0  0  0  0  0  0  0  0  0  0  0  0
   17.5400   13.3153    2.3575 H   0  0  0  0  0  0  0  0  0  0  0  0
   15.1330   11.9920    1.7439 H   0  0  0  0  0  0  0  0  0  0  0  0
   15.3877   13.7728    2.0609 H   0  0  0  0  0  0  0  0  0  0  0  0
   20.3930   15.4084    7.0886 H   0  0  0  0  0  0  0  0  0  0  0  0
   21.0848   13.9880    6.2379 H   0  0  0  0  0  0  0  0  0  0  0  0
   22.8010   15.5100    6.2523 H   0  0  0  0  0  0  0  0  0  0  0  0
   22.0668   15.7661    4.7099 H   0  0  0  0  0  0  0  0  0  0  0  0
   21.3196   17.1694    6.9220 H   0  0  0  0  0  0  0  0  0  0  0  0
   21.7117   17.7441    3.7750 H   0  0  0  0  0  0  0  0  0  0  0  0
   21.0535   18.9735    4.4638 H   0  0  0  0  0  0  0  0  0  0  0  0
   23.9358   17.6941    5.1275 H   0  0  0  0  0  0  0  0  0  0  0  0
   23.6671   18.9149    6.0533 H   0  0  0  0  0  0  0  0  0  0  0  0
  2  1  1  0
  3  2  2  0
  4  1  1  0
  5  4  1  0
  6  5  1  0
  7  6  1  0
  8  7  1  0
  9  8  1  0
 11  9  1  0
 11 10  1  0
 12  2  1  0
 13 12  1  0
 14 13  1  0
 15 14  1  0
 16 15  1  0
 16 14  1  0
  1 17  1  0
  4 18  1  0
  4 19  1  0
  5 20  1  0
  5 21  1  0
  6 22  1  0
  6 23  1  0
  7 24  1  0
  7 25  1  0
  8 26  1  0
  8 27  1  0
  9 28  1  0
  9 29  1  0
 10 30  1  0
 10 31  1  0
 10 32  1  0
 11 33  1  0
 11 34  1  0
 12 35  1  0
 12 36  1  0
 13 37  1  0
 13 38  1  0
 14 39  1  0
 15 40  1  0
 15 41  1  0
 16 42  1  0
 16 43  1  0
M  CHG  1  13   1
M  END
$$$$
=
     RDKit          3D

 21 21  0  0  0  0  0  0  0  0999 V2000
   18.1960   17.4120    4.6640 F   0  0  0  0  0  0  0  0  0  0  0  0
   19.3230   17.7880    3.9770 C   0  0  2  0  0  0  0  0  0  0  0  0
   19.6180   16.6380    3.0230 C   0  0  0  0  0  0  0  0  0  0  0  0
   19.8280   15.3890    3.8400 N   0  0  0  0  0  4  0  0  0  0  0  0
   20.9470   15.4840    4.8260 C   0  0  0  0  0  0  0  0  0  0  0  0
   20.7210   16.6710    5.7490 C   0  0  0  0  0  0  0  0  0  0  0  0
   20.4600   17.9750    4.9880 C   0  0  1  0  0  0  0  0  0  0  0  0
   21.7290   18.5260    4.3390 C   0  0  0  0  0  0  0  0  0  0  0  0
   20.0630   18.9080    5.9020 F   0  0  0  0  0  0  0  0  0  0  0  0
   19.2043   18.7305    3.4224 H   0  0  0  0  0  0  0  0  0  0  0  0
   18.7695   16.4961    2.3375 H   0  0  0  0  0  0  0  0  0  0  0  0
   20.5172   16.8587    2.4292 H   0  0  0  0  0  0  0  0  0  0  0  0
   18.9588   15.1902    4.3557 H   0  0  0  0  0  0  0  0  0  0  0  0
   20.0789   14.6407    3.1782 H   0  0  0  0  0  0  0  0  0  0  0  0
   20.9878   14.5605    5.4222 H   0  0  0  0  0  0  0  0  0  0  0  0
   21.8960   15.6191    4.2864 H   0  0  0  0  0  0  0  0  0  0  0  0
   19.8521   16.4579    6.3890 H   0  0  0  0  0  0  0  0  0  0  0  0
   21.6388   16.8105    6.3391 H   0  0  0  0  0  0  0  0  0  0  0  0
   22.4375   18.8336    5.1222 H   0  0  0  0  0  0  0  0  0  0  0  0
   22.1892   17.7467    3.7138 H   0  0  0  0  0  0  0  0  0  0  0  0
   21.4738   19.3943    3.7138 H   0  0  0  0  0  0  0  0  0  0  0  0
  2  1  1  0
  3  2  1  0
  4  3  1  0
  5  4  1  0
  6  5  1  0
  7  2  1  0
  7  6  1  0
  8  7  1  0
  7  9  1  1
  2 10  1  6
  3 11  1  0
  3 12  1  0
  4 13  1  0
  4 14  1  0
  5 15  1  0
  5 16  1  0
  6 17  1  0
  6 18  1  0
  8 19  1  0
  8 20  1  0
  8 21  1  0
M  CHG  1   4   1
M  END
$$$$
=
     RDKit          3D

 40 42  0  0  0  0  0  0  0  0999 V2000
   16.8640   14.4050    3.7490 C   0  0  0  0  0  0  0  0  0  0  0  0
   16.6120   13.2310    3.0690 C   0  0  0  0  0  0  0  0  0  0  0  0
   15.4240   12.5840    3.1140 N   0  0  0  0  0  0  0  0  0  0  0  0
   14.4830   13.1270    3.8980 C   0  0  0  0  0  0  0  0  0  0  0  0
   14.6300   14.2700    4.6180 N   0  0  0  0  0  0  0  0  0  0  0  0
   15.8400   14.8910    4.5480 C   0  0  0  0  0  0  0  0  0  0  0  0
   16.0090   16.1110    5.4090 C   0  0  0  0  0  0  0  0  0  0  0  0
   13.1370   12.4240    4.0240 C   0  0  1  0  0  0  0  0  0  0  0  0
   12.0690   13.2880    4.6940 C   0  0  0  0  0  0  0  0  0  0  0  0
   11.3640   13.9740    3.5370 C   0  0  0  0  0  0  0  0  0  0  0  0
   11.2570   12.8720    2.5060 C   0  0  0  0  0  0  0  0  0  0  0  0
   12.5350   12.1190    2.6510 N   0  0  0  0  0  4  0  0  0  0  0  0
   18.2740   16.3380    3.9840 N   0  0  0  0  0  0  0  0  0  0  0  0
   18.2040   14.9990    3.6570 C   0  0  0  0  0  0  0  0  0  0  0  0
   19.1040   14.2640    3.2740 O   0  0  0  0  0  0  0  0  0  0  0  0
   22.8310   19.4740    4.3640 F   0  0  0  0  0  0  0  0  0  0  0  0
   21.7310   18.7180    4.2520 C   0  0  0  0  0  0  0  0  0  0  0  0
   21.0470   18.3320    5.3960 C   0  0  0  0  0  0  0  0  0  0  0  0
   19.9000   17.5420    5.2790 C   0  0  0  0  0  0  0  0  0  0  0  0
   19.4350   17.1400    4.0160 C   0  0  0  0  0  0  0  0  0  0  0  0
   20.1410   17.5380    2.8770 C   0  0  0  0  0  0  0  0  0  0  0  0
   21.2900   18.3300    2.9950 C   0  0  0  0  0  0  0  0  0  0  0  0
   17.4185   12.7985    2.4587 H   0  0  0  0  0  0  0  0  0  0  0  0
   15.9687   15.8201    6.4691 H   0  0  0  0  0  0  0  0  0  0  0  0
   16.9807   16.5797    5.1941 H   0  0  0  0  0  0  0  0  0  0  0  0
   15.2014   16.8262    5.1941 H   0  0  0  0  0  0  0  0  0  0  0  0
   13.3644   11.5236    4.6136 H   0  0  0  0  0  0  0  0  0  0  0  0
   11.3652   12.6649    5.2653 H   0  0  0  0  0  0  0  0  0  0  0  0
   12.4960   14.0044    5.4113 H   0  0  0  0  0  0  0  0  0  0  0  0
   10.3686   14.3334    3.8370 H   0  0  0  0  0  0  0  0  0  0  0  0
   11.8968   14.8632    3.1690 H   0  0  0  0  0  0  0  0  0  0  0  0
   10.3943   12.2225    2.7157 H   0  0  0  0  0  0  0  0  0  0  0  0
   11.1057   13.2580    1.4871 H   0  0  0  0  0  0  0  0  0  0  0  0
   12.3520   11.1086    2.5705 H   0  0  0  0  0  0  0  0  0  0  0  0
   13.1928   12.4024    1.9108 H   0  0  0  0  0  0  0  0  0  0  0  0
   17.3870   16.8000    4.2302 H   0  0  0  0  0  0  0  0  0  0  0  0
   21.4049   18.6455    6.3878 H   0  0  0  0  0  0  0  0  0  0  0  0
   19.3567   17.2323    6.1839 H   0  0  0  0  0  0  0  0  0  0  0  0
   19.7917   17.2270    1.8814 H   0  0  0  0  0  0  0  0  0  0  0  0
   21.8402   18.6430    2.0954 H   0  0  0  0  0  0  0  0  0  0  0  0
  2  1  2  0
  3  2  1  0
  4  3  2  0
  5  4  1  0
  6  5  2  0
  6  1  1  0
  7  6  1  0
  8  4  1  0
  9  8  1  0
 10  9  1  0
 11 10  1  0
 12 11  1  0
 12  8  1  0
 14 13  1  0
 14  1  1  0
 15 14  2  0
 17 16  1  0
 18 17  2  0
 19 18  1  0
 20 13  1  0
 20 19  2  0
 21 20  1  0
 22 21  2  0
 22 17  1  0
  2 23  1  0
  7 24  1  0
  7 25  1  0
  7 26  1  0
  8 27  1  1
  9 28  1  0
  9 29  1  0
 10 30  1  0
 10 31  1  0
 11 32  1  0
 11 33  1  0
 12 34  1  0
 12 35  1  0
 13 36  1  0
 18 37  1  0
 19 38  1  0
 21 39  1  0
 22 40  1  0
M  CHG  1  12   1
M  END
$$$$
=
     RDKit          3D

 20 20  0  0  0  0  0  0  0  0999 V2000
   19.7090   15.5580    3.9000 C   0  0  0  0  0  0  0  0  0  0  0  0
   20.5120   15.7250    5.0880 N   0  0  0  0  0  0  0  0  0  0  0  0
   20.4310   14.9620    6.2130 C   0  0  0  0  0  0  0  0  0  0  0  0
   21.2080   15.4720    7.1360 N   0  0  0  0  0  0  0  0  0  0  0  0
   21.8420   16.5610    6.5920 N   0  0  0  0  0  0  0  0  0  0  0  0
   21.4430   16.6970    5.3470 C   0  0  0  0  0  0  0  0  0  0  0  0
   21.9090   17.7240    4.3890 C   0  0  0  0  0  0  0  0  0  0  0  0
   18.6740   14.4490    4.0940 C   0  0  0  0  0  0  0  0  0  0  0  0
   18.8010   13.4000    3.0430 N   0  0  0  0  0  4  0  0  0  0  0  0
   19.1888   16.5021    3.6810 H   0  0  0  0  0  0  0  0  0  0  0  0
   20.3692   15.2812    3.0649 H   0  0  0  0  0  0  0  0  0  0  0  0
   19.8114   14.0605    6.3283 H   0  0  0  0  0  0  0  0  0  0  0  0
   22.3019   18.5899    4.9420 H   0  0  0  0  0  0  0  0  0  0  0  0
   22.7036   17.3017    3.7564 H   0  0  0  0  0  0  0  0  0  0  0  0
   21.0679   18.0439    3.7564 H   0  0  0  0  0  0  0  0  0  0  0  0
   18.8242   13.9873    5.0811 H   0  0  0  0  0  0  0  0  0  0  0  0
   17.6706   14.8939    4.0211 H   0  0  0  0  0  0  0  0  0  0  0  0
   18.9126   12.4785    3.4894 H   0  0  0  0  0  0  0  0  0  0  0  0
   17.9542   13.3972    2.4566 H   0  0  0  0  0  0  0  0  0  0  0  0
   19.6240   13.5993    2.4566 H   0  0  0  0  0  0  0  0  0  0  0  0
  2  1  1  0
  3  2  1  0
  4  3  2  0
  5  4  1  0
  6  2  1  0
  6  5  2  0
  7  6  1  0
  8  1  1  0
  9  8  1  0
  1 10  1  0
  1 11  1  0
  3 12  1  0
  7 13  1  0
  7 14  1  0
  7 15  1  0
  8 16  1  0
  8 17  1  0
  9 18  1  0
  9 19  1  0
  9 20  1  0
M  CHG  1   9   1
M  END
$$$$
=
     RDKit          3D

 41 43  0  0  0  0  0  0  0  0999 V2000
   20.0240   15.6320    4.6370 C   0  0  0  0  0  0  0  0  0  0  0  0
   19.5710   14.8800    5.6920 N   0  0  0  0  0  0  0  0  0  0  0  0
   18.6790   13.9510    5.2910 N   0  0  0  0  0  0  0  0  0  0  0  0
   18.6990   14.1200    3.9670 C   0  0  0  0  0  0  0  0  0  0  0  0
   19.4480   15.1880    3.5330 N   0  0  0  0  0  0  0  0  0  0  0  0
   20.9640   17.8350    3.9070 C   0  0  0  0  0  0  0  0  0  0  0  0
   21.9120   18.8520    4.0700 C   0  0  0  0  0  0  0  0  0  0  0  0
   22.8850   18.7630    5.0700 C   0  0  0  0  0  0  0  0  0  0  0  0
   22.9200   17.6610    5.9170 C   0  0  0  0  0  0  0  0  0  0  0  0
   21.9800   16.6410    5.7680 C   0  0  0  0  0  0  0  0  0  0  0  0
   20.9950   16.7160    4.7660 C   0  0  0  0  0  0  0  0  0  0  0  0
   20.4010   17.6110    1.5950 C   0  0  0  0  0  0  0  0  0  0  0  0
   19.9890   17.8400    2.9370 O   0  0  0  0  0  0  0  0  0  0  0  0
   17.8970   13.3300    2.9730 C   0  0  2  0  0  0  0  0  0  0  0  0
   16.4350   13.5710    3.2800 C   0  0  0  0  0  0  0  0  0  0  0  0
   15.9610   14.8070    3.7620 C   0  0  0  0  0  0  0  0  0  0  0  0
   14.6110   14.9790    4.0790 C   0  0  0  0  0  0  0  0  0  0  0  0
   13.7080   13.9230    3.9370 C   0  0  0  0  0  0  0  0  0  0  0  0
   14.1670   12.6980    3.4450 C   0  0  0  0  0  0  0  0  0  0  0  0
   15.5150   12.5210    3.1250 C   0  0  0  0  0  0  0  0  0  0  0  0
   12.2500   14.1230    4.2410 C   0  0  0  0  0  0  0  0  0  0  0  0
   18.2300   11.8800    3.0860 N   0  0  0  0  0  4  0  0  0  0  0  0
   19.8742   15.0089    6.6679 H   0  0  0  0  0  0  0  0  0  0  0  0
   21.8912   19.7285    3.4057 H   0  0  0  0  0  0  0  0  0  0  0  0
   23.6256   19.5678    5.1871 H   0  0  0  0  0  0  0  0  0  0  0  0
   23.6870   17.5936    6.7026 H   0  0  0  0  0  0  0  0  0  0  0  0
   22.0091   15.7704    6.4398 H   0  0  0  0  0  0  0  0  0  0  0  0
   21.3625   17.0766    1.5927 H   0  0  0  0  0  0  0  0  0  0  0  0
   19.6432   17.0046    1.0772 H   0  0  0  0  0  0  0  0  0  0  0  0
   20.5159   18.5747    1.0772 H   0  0  0  0  0  0  0  0  0  0  0  0
   18.1257   13.6436    1.9437 H   0  0  0  0  0  0  0  0  0  0  0  0
   16.6611   15.6457    3.8902 H   0  0  0  0  0  0  0  0  0  0  0  0
   14.2564   15.9544    4.4435 H   0  0  0  0  0  0  0  0  0  0  0  0
   13.4605   11.8660    3.3086 H   0  0  0  0  0  0  0  0  0  0  0  0
   15.8604   11.5474    2.7470 H   0  0  0  0  0  0  0  0  0  0  0  0
   12.1021   14.1433    5.3308 H   0  0  0  0  0  0  0  0  0  0  0  0
   11.9124   15.0759    3.8074 H   0  0  0  0  0  0  0  0  0  0  0  0
   11.6683   13.2962    3.8074 H   0  0  0  0  0  0  0  0  0  0  0  0
   18.2902   11.6180    4.0803 H   0  0  0  0  0  0  0  0  0  0  0  0
   17.4952   11.3223    2.6278 H   0  0  0  0  0  0  0  0  0  0  0  0
   19.1345   11.6987    2.6278 H   0  0  0  0  0  0  0  0  0  0  0  0
  2  1  1  0
  3  2  1  0
  4  3  2  0
  5  4  1  0
  5  1  2  0
  7  6  2  0
  8  7  1  0
  9  8  2  0
 10  9  1  0
 11  1  1  0
 11  6  1  0
 11 10  2  0
 13 12  1  0
 13  6  1  0
 14  4  1  0
 15 14  1  0
 16 15  2  0
 17 16  1  0
 18 17  2  0
 19 18  1  0
 20 19  2  0
 20 15  1  0
 21 18  1  0
 22 14  1  0
  2 23  1  0
  7 24  1  0
  8 25  1  0
  9 26  1  0
 10 27  1  0
 12 28  1  0
 12 29  1  0
 12 30  1  0
 14 31  1  6
 16 32  1  0
 17 33  1  0
 19 34  1  0
 20 35  1  0
 21 36  1  0
 21 37  1  0
 21 38  1  0
 22 39  1  0
 22 40  1  0
 22 41  1  0
M  CHG  1  22   1
M  END
$$$$
=
     RDKit          3D

 46 48  0  0  0  0  0  0  0  0999 V2000
    7.2420   14.5230    6.6690 C   0  0  0  0  0  0  0  0  0  0  0  0
    6.2940   14.2260    5.6860 C   0  0  0  0  0  0  0  0  0  0  0  0
    6.6900   13.8130    4.4100 C   0  0  0  0  0  0  0  0  0  0  0  0
    8.0480   13.7300    4.0860 C   0  0  0  0  0  0  0  0  0  0  0  0
    9.0080   14.0840    5.0650 C   0  0  0  0  0  0  0  0  0  0  0  0
    8.6000   14.4960    6.3340 C   0  0  0  0  0  0  0  0  0  0  0  0
    8.5200   13.2990    2.8060 N   0  0  0  0  0  0  0  0  0  0  0  0
    8.6810   11.8270    2.8310 C   0  0  0  0  0  0  0  0  0  0  0  0
    9.3700   11.3660    1.5490 C   0  0  0  0  0  0  0  0  0  0  0  0
    8.5810   11.8130    0.3230 C   0  0  0  0  0  0  0  0  0  0  0  0
    8.3610   13.3220    0.3510 C   0  0  0  0  0  0  0  0  0  0  0  0
    7.6970   13.7830    1.6640 C   0  0  2  0  0  0  0  0  0  0  0  0
    7.6020   15.3140    1.6430 C   0  0  0  0  0  0  0  0  0  0  0  0
   10.3520   13.9960    4.6460 N   0  0  0  0  0  0  0  0  0  0  0  0
   11.4550   13.6070    5.3690 C   0  0  0  0  0  0  0  0  0  0  0  0
   11.4800   13.2810    6.5500 O   0  0  0  0  0  0  0  0  0  0  0  0
   12.7410   13.6190    4.6100 C   0  0  0  0  0  0  0  0  0  0  0  0
   13.0670   12.4950    3.8370 C   0  0  0  0  0  0  0  0  0  0  0  0
   14.2580   12.4630    3.1090 C   0  0  0  0  0  0  0  0  0  0  0  0
   15.1120   13.5590    3.1490 C   0  0  0  0  0  0  0  0  0  0  0  0
   14.7980   14.6880    3.8960 C   0  0  0  0  0  0  0  0  0  0  0  0
   13.6070   14.7240    4.6270 C   0  0  0  0  0  0  0  0  0  0  0  0
   16.2550   13.5310    2.4500 F   0  0  0  0  0  0  0  0  0  0  0  0
    6.8310   15.0480    7.9020 N   0  0  0  0  0  0  0  0  0  0  0  0
    5.2229   14.3183    5.9189 H   0  0  0  0  0  0  0  0  0  0  0  0
    5.9305   13.5524    3.6582 H   0  0  0  0  0  0  0  0  0  0  0  0
    9.3517   14.8019    7.0766 H   0  0  0  0  0  0  0  0  0  0  0  0
    9.2928   11.5402    3.6990 H   0  0  0  0  0  0  0  0  0  0  0  0
    7.6915   11.3522    2.9053 H   0  0  0  0  0  0  0  0  0  0  0  0
   10.3802   11.7991    1.5060 H   0  0  0  0  0  0  0  0  0  0  0  0
    9.4259   10.2674    1.5527 H   0  0  0  0  0  0  0  0  0  0  0  0
    9.1409   11.5455   -0.5853 H   0  0  0  0  0  0  0  0  0  0  0  0
    7.6025   11.3105    0.3267 H   0  0  0  0  0  0  0  0  0  0  0  0
    9.3339   13.8250    0.2490 H   0  0  0  0  0  0  0  0  0  0  0  0
    7.6897   13.5837   -0.4802 H   0  0  0  0  0  0  0  0  0  0  0  0
    6.6826   13.3715    1.7719 H   0  0  0  0  0  0  0  0  0  0  0  0
    7.5784   15.6941    2.6750 H   0  0  0  0  0  0  0  0  0  0  0  0
    8.4762   15.7285    1.1195 H   0  0  0  0  0  0  0  0  0  0  0  0
    6.6833   15.6172    1.1195 H   0  0  0  0  0  0  0  0  0  0  0  0
   10.5314   14.2585    3.6663 H   0  0  0  0  0  0  0  0  0  0  0  0
   12.3816   11.6352    3.8042 H   0  0  0  0  0  0  0  0  0  0  0  0
   14.5182   11.5784    2.5092 H   0  0  0  0  0  0  0  0  0  0  0  0
   15.4829   15.5486    3.9120 H   0  0  0  0  0  0  0  0  0  0  0  0
   13.3486   15.6171    5.2149 H   0  0  0  0  0  0  0  0  0  0  0  0
    7.5292   15.2671    8.6269 H   0  0  0  0  0  0  0  0  0  0  0  0
    5.8308   15.2147    8.0831 H   0  0  0  0  0  0  0  0  0  0  0  0
  2  1  2  0
  3  2  1  0
  4  3  2  0
  5  4  1  0
  6  5  2  0
  6  1  1  0
  7  4  1  0
  8  7  1  0
  9  8  1  0
 10  9  1  0
 11 10  1  0
 12 11  1  0
 12  7  1  0
 13 12  1  0
 14  5  1  0
 15 14  1  0
 16 15  2  0
 17 15  1  0
 18 17  2  0
 19 18  1  0
 20 19  2  0
 21 20  1  0
 22 21  2  0
 22 17  1  0
 23 20  1  0
 24  1  1  0
  2 25  1  0
  3 26  1  0
  6 27  1  0
  8 28  1  0
  8 29  1  0
  9 30  1  0
  9 31  1  0
 10 32  1  0
 10 33  1  0
 11 34  1  0
 11 35  1  0
 12 36  1  1
 13 37  1  0
 13 38  1  0
 13 39  1  0
 14 40  1  0
 18 41  1  0
 19 42  1  0
 21 43  1  0
 22 44  1  0
 24 45  1  0
 24 46  1  0
M  END
$$$$
=
     RDKit          3D

 28 29  0  0  0  0  0  0  0  0999 V2000
   18.0590   16.2780    4.6510 N   0  0  0  0  0  4  0  0  0  0  0  0
   19.2580   16.1170    5.5270 C   0  0  0  0  0  0  0  0  0  0  0  0
   23.8700   18.4760    5.1050 F   0  0  0  0  0  0  0  0  0  0  0  0
   22.6050   18.0490    4.9690 C   0  0  0  0  0  0  0  0  0  0  0  0
   21.7590   18.5120    3.9960 C   0  0  0  0  0  0  0  0  0  0  0  0
   20.4780   17.8890    4.0790 C   0  0  0  0  0  0  0  0  0  0  0  0
   20.4090   16.9700    5.1120 C   0  0  0  0  0  0  0  0  0  0  0  0
   21.8950   16.8900    5.9750 S   0  0  0  0  0  0  0  0  0  0  0  0
   17.7580   15.1550    3.7130 C   0  0  0  0  0  0  0  0  0  0  0  0
   16.3240   14.7130    3.7680 C   0  0  0  0  0  0  0  0  0  0  0  0
   15.9190   13.5230    3.1420 C   0  0  0  0  0  0  0  0  0  0  0  0
   14.5910   13.0990    3.2240 C   0  0  0  0  0  0  0  0  0  0  0  0
   13.6590   13.8570    3.9280 C   0  0  0  0  0  0  0  0  0  0  0  0
   14.0470   15.0450    4.5450 C   0  0  0  0  0  0  0  0  0  0  0  0
   15.3720   15.4730    4.4660 C   0  0  0  0  0  0  0  0  0  0  0  0
   17.2397   16.4017    5.2629 H   0  0  0  0  0  0  0  0  0  0  0  0
   18.2710   17.0854    4.0476 H   0  0  0  0  0  0  0  0  0  0  0  0
   18.9774   16.3854    6.5562 H   0  0  0  0  0  0  0  0  0  0  0  0
   19.5826   15.0691    5.4466 H   0  0  0  0  0  0  0  0  0  0  0  0
   22.0326   19.2684    3.2457 H   0  0  0  0  0  0  0  0  0  0  0  0
   19.6417   18.1131    3.4004 H   0  0  0  0  0  0  0  0  0  0  0  0
   17.9843   15.4841    2.6881 H   0  0  0  0  0  0  0  0  0  0  0  0
   18.3782   14.2984    4.0155 H   0  0  0  0  0  0  0  0  0  0  0  0
   16.6518   12.9216    2.5840 H   0  0  0  0  0  0  0  0  0  0  0  0
   14.2809   12.1653    2.7320 H   0  0  0  0  0  0  0  0  0  0  0  0
   12.6149   13.5177    3.9973 H   0  0  0  0  0  0  0  0  0  0  0  0
   13.3074   15.6456    5.0948 H   0  0  0  0  0  0  0  0  0  0  0  0
   15.6731   16.4119    4.9536 H   0  0  0  0  0  0  0  0  0  0  0  0
  2  1  1  0
  4  3  1  0
  5  4  2  0
  6  5  1  0
  7  2  1  0
  7  6  2  0
  8  7  1  0
  8  4  1  0
  9  1  1  0
 10  9  1  0
 11 10  2  0
 12 11  1  0
 13 12  2  0
 14 13  1  0
 15 14  2  0
 15 10  1  0
  1 16  1  0
  1 17  1  0
  2 18  1  0
  2 19  1  0
  5 20  1  0
  6 21  1  0
  9 22  1  0
  9 23  1  0
 11 24  1  0
 12 25  1  0
 13 26  1  0
 14 27  1  0
 15 28  1  0
M  CHG  1   1   1
M  END
$$$$
=
     RDKit          3D

 34 33  0  0  0  0  0  0  0  0999 V2000
   19.8160   15.0040    5.2070 C   0  0  0  0  0  0  0  0  0  0  0  0
   18.7390   15.9430    5.0980 O   0  0  0  0  0  0  0  0  0  0  0  0
   17.7360   15.7920    6.0980 C   0  0  0  0  0  0  0  0  0  0  0  0
   16.3930   16.3530    5.6320 C   0  0  0  0  0  0  0  0  0  0  0  0
   15.5910   15.2930    4.8920 C   0  0  0  0  0  0  0  0  0  0  0  0
   16.3030   14.9060    3.6480 N   0  0  0  0  0  4  0  0  0  0  0  0
   20.2540   14.8940    6.6700 C   0  0  0  0  0  0  0  0  0  0  0  0
   21.3040   15.8300    6.9480 O   0  0  0  0  0  0  0  0  0  0  0  0
   22.0220   16.1840    5.7690 C   0  0  0  0  0  0  0  0  0  0  0  0
   22.4610   17.6390    5.9050 C   0  0  0  0  0  0  0  0  0  0  0  0
   21.5460   18.6210    5.1900 C   0  0  0  0  0  0  0  0  0  0  0  0
   20.1640   18.5500    5.7260 N   0  0  0  0  0  4  0  0  0  0  0  0
   19.4807   14.0190    4.8500 H   0  0  0  0  0  0  0  0  0  0  0  0
   20.6639   15.3474    4.5962 H   0  0  0  0  0  0  0  0  0  0  0  0
   17.6170   14.7226    6.3265 H   0  0  0  0  0  0  0  0  0  0  0  0
   18.0522   16.3500    6.9917 H   0  0  0  0  0  0  0  0  0  0  0  0
   15.8205   16.6919    6.5080 H   0  0  0  0  0  0  0  0  0  0  0  0
   16.5809   17.1937    4.9480 H   0  0  0  0  0  0  0  0  0  0  0  0
   15.4719   14.4088    5.5355 H   0  0  0  0  0  0  0  0  0  0  0  0
   14.6012   15.6981    4.6347 H   0  0  0  0  0  0  0  0  0  0  0  0
   17.1825   14.4279    3.8904 H   0  0  0  0  0  0  0  0  0  0  0  0
   15.7086   14.2719    3.0953 H   0  0  0  0  0  0  0  0  0  0  0  0
   16.5118   15.7497    3.0953 H   0  0  0  0  0  0  0  0  0  0  0  0
   19.3950   15.1082    7.3228 H   0  0  0  0  0  0  0  0  0  0  0  0
   20.6249   13.8753    6.8563 H   0  0  0  0  0  0  0  0  0  0  0  0
   22.9044   15.5362    5.6603 H   0  0  0  0  0  0  0  0  0  0  0  0
   21.3854   16.0577    4.8808 H   0  0  0  0  0  0  0  0  0  0  0  0
   22.4810   17.8976    6.9740 H   0  0  0  0  0  0  0  0  0  0  0  0
   23.4524   17.7218    5.4356 H   0  0  0  0  0  0  0  0  0  0  0  0
   21.9338   19.6408    5.3300 H   0  0  0  0  0  0  0  0  0  0  0  0
   21.5204   18.3607    4.1215 H   0  0  0  0  0  0  0  0  0  0  0  0
   20.1946   18.5516    6.7555 H   0  0  0  0  0  0  0  0  0  0  0  0
   19.6260   19.3645    5.3972 H   0  0  0  0  0  0  0  0  0  0  0  0
   19.7123   17.6847    5.3972 H   0  0  0  0  0  0  0  0  0  0  0  0
  2  1  1  0
  3  2  1  0
  4  3  1  0
  5  4  1  0
  6  5  1  0
  7  1  1  0
  8  7  1  0
  9  8  1  0
 10  9  1  0
 11 10  1  0
 12 11  1  0
  1 13  1  0
  1 14  1  0
  3 15  1  0
  3 16  1  0
  4 17  1  0
  4 18  1  0
  5 19  1  0
  5 20  1  0
  6 21  1  0
  6 22  1  0
  6 23  1  0
  7 24  1  0
  7 25  1  0
  9 26  1  0
  9 27  1  0
 10 28  1  0
 10 29  1  0
 11 30  1  0
 11 31  1  0
 12 32  1  0
 12 33  1  0
 12 34  1  0
M  CHG  2   6   1  12   1
M  END
$$$$
=
     RDKit          3D

 28 30  0  0  0  0  0  0  0  0999 V2000
   19.7260   17.2920    3.4120 C   0  0  0  0  0  0  0  0  0  0  0  0
   19.1960   17.9260    4.6780 N   0  0  0  0  0  4  0  0  0  0  0  0
   19.0740   16.9430    5.8100 C   0  0  0  0  0  0  0  0  0  0  0  0
   18.0480   15.8430    5.4400 C   0  0  0  0  0  0  0  0  0  0  0  0
   17.8290   15.7950    3.9690 N   0  0  0  0  0  0  0  0  0  0  0  0
   19.0870   15.9040    3.1900 C   0  0  0  0  0  0  0  0  0  0  0  0
   17.1260   14.6080    3.6450 C   0  0  0  0  0  0  0  0  0  0  0  0
   17.8080   13.5490    3.1530 N   0  0  0  0  0  0  0  0  0  0  0  0
   17.1400   12.4190    2.8640 C   0  0  0  0  0  0  0  0  0  0  0  0
   15.8360   12.1910    3.0080 N   0  0  0  0  0  0  0  0  0  0  0  0
   15.1770   13.2590    3.4820 C   0  0  0  0  0  0  0  0  0  0  0  0
   15.7300   14.4850    3.8190 C   0  0  0  0  0  0  0  0  0  0  0  0
   14.7080   15.3910    4.2700 C   0  0  0  0  0  0  0  0  0  0  0  0
   13.4540   14.8190    4.2750 C   0  0  0  0  0  0  0  0  0  0  0  0
   13.4930   13.1980    3.7340 S   0  0  0  0  0  0  0  0  0  0  0  0
   19.4880   17.9405    2.5560 H   0  0  0  0  0  0  0  0  0  0  0  0
   20.8152   17.1698    3.5059 H   0  0  0  0  0  0  0  0  0  0  0  0
   19.8377   18.6796    4.9632 H   0  0  0  0  0  0  0  0  0  0  0  0
   18.2528   18.2867    4.4750 H   0  0  0  0  0  0  0  0  0  0  0  0
   20.0538   16.4801    5.9991 H   0  0  0  0  0  0  0  0  0  0  0  0
   18.7328   17.4694    6.7136 H   0  0  0  0  0  0  0  0  0  0  0  0
   18.4270   14.8679    5.7798 H   0  0  0  0  0  0  0  0  0  0  0  0
   17.0912   16.0752    5.9306 H   0  0  0  0  0  0  0  0  0  0  0  0
   19.7883   15.1231    3.5192 H   0  0  0  0  0  0  0  0  0  0  0  0
   18.8622   15.7764    2.1208 H   0  0  0  0  0  0  0  0  0  0  0  0
   17.7387   11.5879    2.4629 H   0  0  0  0  0  0  0  0  0  0  0  0
   14.9058   16.4284    4.5777 H   0  0  0  0  0  0  0  0  0  0  0  0
   12.5389   15.3423    4.5891 H   0  0  0  0  0  0  0  0  0  0  0  0
  2  1  1  0
  3  2  1  0
  4  3  1  0
  5  4  1  0
  6  5  1  0
  6  1  1  0
  7  5  1  0
  8  7  2  0
  9  8  1  0
 10  9  2  0
 11 10  1  0
 12 11  2  0
 12  7  1  0
 13 12  1  0
 14 13  2  0
 15 14  1  0
 15 11  1  0
  1 16  1  0
  1 17  1  0
  2 18  1  0
  2 19  1  0
  3 20  1  0
  3 21  1  0
  4 22  1  0
  4 23  1  0
  6 24  1  0
  6 25  1  0
  9 26  1  0
 13 27  1  0
 14 28  1  0
M  CHG  1   2   1
M  END
$$$$
=
     RDKit          3D

 38 41  0  0  0  0  0  0  0  0999 V2000
    8.7770   13.4660    5.2500 C   0  0  0  0  0  0  0  0  0  0  0  0
    7.3250   13.2260    5.0370 C   0  0  0  0  0  0  0  0  0  0  0  0
    6.4900   13.5580    5.8750 O   0  0  0  0  0  0  0  0  0  0  0  0
    6.9480   12.6030    3.8830 N   0  0  0  0  0  0  0  0  0  0  0  0
    7.8450   12.2650    2.8690 C   0  0  0  0  0  0  0  0  0  0  0  0
    9.2120   12.5190    3.0430 C   0  0  0  0  0  0  0  0  0  0  0  0
    9.6990   13.0740    4.3390 C   0  0  0  0  0  0  0  0  0  0  0  0
   10.0630   12.2630    1.9570 C   0  0  0  0  0  0  0  0  0  0  0  0
    9.5750   11.7130    0.7690 C   0  0  0  0  0  0  0  0  0  0  0  0
    8.2180   11.4300    0.6360 C   0  0  0  0  0  0  0  0  0  0  0  0
    7.3480   11.7140    1.6840 C   0  0  0  0  0  0  0  0  0  0  0  0
   10.0250   13.6440    7.2970 O   0  0  0  0  0  0  0  0  0  0  0  0
    9.1890   14.1130    6.5270 C   0  0  0  0  0  0  0  0  0  0  0  0
   11.0970   13.1870    4.4960 N   0  0  0  0  0  0  0  0  0  0  0  0
   11.7560   14.4850    4.2440 C   0  0  0  0  0  0  0  0  0  0  0  0
   13.2410   14.3420    4.0310 C   0  0  0  0  0  0  0  0  0  0  0  0
   14.1120   15.4110    4.3510 C   0  0  0  0  0  0  0  0  0  0  0  0
   15.4900   15.3070    4.1400 C   0  0  0  0  0  0  0  0  0  0  0  0
   15.9690   14.1300    3.6080 C   0  0  0  0  0  0  0  0  0  0  0  0
   15.1340   13.0850    3.2930 C   0  0  0  0  0  0  0  0  0  0  0  0
   13.7710   13.1570    3.4910 C   0  0  0  0  0  0  0  0  0  0  0  0
   15.8040   12.0210    2.7770 O   0  0  0  0  0  0  0  0  0  0  0  0
   17.1580   12.5200    2.7980 C   0  0  0  0  0  0  0  0  0  0  0  0
   17.2710   13.8560    3.3300 O   0  0  0  0  0  0  0  0  0  0  0  0
    5.9528   12.3709    3.7541 H   0  0  0  0  0  0  0  0  0  0  0  0
   11.1338   12.4997    2.0426 H   0  0  0  0  0  0  0  0  0  0  0  0
   10.2638   11.5032   -0.0626 H   0  0  0  0  0  0  0  0  0  0  0  0
    7.8355   10.9837   -0.2938 H   0  0  0  0  0  0  0  0  0  0  0  0
    6.2729   11.5057    1.5806 H   0  0  0  0  0  0  0  0  0  0  0  0
    8.7164   15.0687    6.7976 H   0  0  0  0  0  0  0  0  0  0  0  0
   11.6541   12.3700    4.7843 H   0  0  0  0  0  0  0  0  0  0  0  0
   11.3120   14.9383    3.3455 H   0  0  0  0  0  0  0  0  0  0  0  0
   11.6031   15.1172    5.1311 H   0  0  0  0  0  0  0  0  0  0  0  0
   13.6977   16.3387    4.7726 H   0  0  0  0  0  0  0  0  0  0  0  0
   16.1682   16.1361    4.3901 H   0  0  0  0  0  0  0  0  0  0  0  0
   13.1168   12.3109    3.2336 H   0  0  0  0  0  0  0  0  0  0  0  0
   17.7679   11.8459    3.4174 H   0  0  0  0  0  0  0  0  0  0  0  0
   17.5053   12.5568    1.7549 H   0  0  0  0  0  0  0  0  0  0  0  0
  2  1  1  0
  3  2  2  0
  4  2  1  0
  5  4  1  0
  6  5  2  0
  7  6  1  0
  7  1  2  0
  8  6  1  0
  9  8  2  0
 10  9  1  0
 11 10  2  0
 11  5  1  0
 13  1  1  0
 13 12  2  0
 14  7  1  0
 15 14  1  0
 16 15  1  0
 17 16  2  0
 18 17  1  0
 19 18  2  0
 20 19  1  0
 21 20  2  0
 21 16  1  0
 22 20  1  0
 23 22  1  0
 24 19  1  0
 24 23  1  0
  4 25  1  0
  8 26  1  0
  9 27  1  0
 10 28  1  0
 11 29  1  0
 13 30  1  0
 14 31  1  0
 15 32  1  0
 15 33  1  0
 17 34  1  0
 18 35  1  0
 21 36  1  0
 23 37  1  0
 23 38  1  0
M  END
$$$$
=
     RDKit          3D

 53 55  0  0  0  0  0  0  0  0999 V2000
   18.1980   15.6430    4.5800 N   0  0  0  0  0  0  0  0  0  0  0  0
   16.9460   16.0310    5.0150 C   0  0  0  0  0  0  0  0  0  0  0  0
   16.6130   16.9870    5.6960 O   0  0  0  0  0  0  0  0  0  0  0  0
   15.9250   15.0360    4.5330 C   0  0  0  0  0  0  0  0  0  0  0  0
   16.6300   14.4060    3.3670 C   0  0  1  0  0  0  0  0  0  0  0  0
   18.0860   14.5790    3.7200 C   0  0  0  0  0  0  0  0  0  0  0  0
   18.9150   13.7900    3.2840 O   0  0  0  0  0  0  0  0  0  0  0  0
   21.9010   17.3800    5.8400 C   0  0  0  0  0  0  0  0  0  0  0  0
   21.4740   16.1680    6.3670 C   0  0  0  0  0  0  0  0  0  0  0  0
   20.2570   15.6010    5.9500 C   0  0  0  0  0  0  0  0  0  0  0  0
   19.4350   16.2280    4.9980 C   0  0  0  0  0  0  0  0  0  0  0  0
   19.8880   17.4480    4.4780 C   0  0  0  0  0  0  0  0  0  0  0  0
   21.1010   18.0140    4.8950 C   0  0  0  0  0  0  0  0  0  0  0  0
   23.7440   18.6850    5.0910 C   0  0  0  0  0  0  0  0  0  0  0  0
   23.0530   18.0400    6.1550 O   0  0  0  0  0  0  0  0  0  0  0  0
   16.2710   12.9470    3.1840 N   0  0  0  0  0  4  0  0  0  0  0  0
   14.9490   12.6900    2.5310 C   0  0  0  0  0  0  0  0  0  0  0  0
   13.9980   12.0290    3.5290 C   0  0  0  0  0  0  0  0  0  0  0  0
   12.6770   12.7490    3.5650 C   0  0  0  0  0  0  0  0  0  0  0  0
   12.4270   13.7490    4.5050 C   0  0  0  0  0  0  0  0  0  0  0  0
   11.1760   14.3780    4.5550 C   0  0  0  0  0  0  0  0  0  0  0  0
   10.1500   14.0240    3.6680 C   0  0  0  0  0  0  0  0  0  0  0  0
   10.4060   13.0340    2.7050 C   0  0  0  0  0  0  0  0  0  0  0  0
   11.6580   12.4010    2.6710 C   0  0  0  0  0  0  0  0  0  0  0  0
    9.5450   12.5360    1.7610 O   0  0  0  0  0  0  0  0  0  0  0  0
    9.4920   11.1220    1.6060 C   0  0  0  0  0  0  0  0  0  0  0  0
    8.8960   14.5680    3.7130 O   0  0  0  0  0  0  0  0  0  0  0  0
    7.9660   14.0500    4.6560 C   0  0  0  0  0  0  0  0  0  0  0  0
   15.6939   14.2922    5.3098 H   0  0  0  0  0  0  0  0  0  0  0  0
   14.9549   15.4856    4.2747 H   0  0  0  0  0  0  0  0  0  0  0  0
   16.3515   14.8686    2.4086 H   0  0  0  0  0  0  0  0  0  0  0  0
   22.0915   15.6489    7.1148 H   0  0  0  0  0  0  0  0  0  0  0  0
   19.9394   14.6400    6.3808 H   0  0  0  0  0  0  0  0  0  0  0  0
   19.2791   17.9725    3.7269 H   0  0  0  0  0  0  0  0  0  0  0  0
   21.4252   18.9746    4.4682 H   0  0  0  0  0  0  0  0  0  0  0  0
   24.4888   19.3802    5.5057 H   0  0  0  0  0  0  0  0  0  0  0  0
   24.2515   17.9301    4.4725 H   0  0  0  0  0  0  0  0  0  0  0  0
   23.0258   19.2432    4.4725 H   0  0  0  0  0  0  0  0  0  0  0  0
   17.0021   12.5097    2.6051 H   0  0  0  0  0  0  0  0  0  0  0  0
   16.2022   12.5498    4.1319 H   0  0  0  0  0  0  0  0  0  0  0  0
   14.5176   13.6435    2.1921 H   0  0  0  0  0  0  0  0  0  0  0  0
   15.0934   12.0214    1.6695 H   0  0  0  0  0  0  0  0  0  0  0  0
   13.8310   10.9836    3.2301 H   0  0  0  0  0  0  0  0  0  0  0  0
   14.4512   12.0730    4.5304 H   0  0  0  0  0  0  0  0  0  0  0  0
   13.2167   14.0454    5.2111 H   0  0  0  0  0  0  0  0  0  0  0  0
   10.9958   15.1636    5.3036 H   0  0  0  0  0  0  0  0  0  0  0  0
   11.8426   11.6138    1.9251 H   0  0  0  0  0  0  0  0  0  0  0  0
    9.4741   10.6449    2.5970 H   0  0  0  0  0  0  0  0  0  0  0  0
    8.5829   10.8478    1.0506 H   0  0  0  0  0  0  0  0  0  0  0  0
   10.3780   10.7806    1.0506 H   0  0  0  0  0  0  0  0  0  0  0  0
    8.3270   14.2511    5.6754 H   0  0  0  0  0  0  0  0  0  0  0  0
    6.9888   14.5338    4.5110 H   0  0  0  0  0  0  0  0  0  0  0  0
    7.8629   12.9645    4.5110 H   0  0  0  0  0  0  0  0  0  0  0  0
  2  1  1  0
  3  2  2  0
  4  2  1  0
  5  4  1  0
  6  5  1  0
  6  1  1  0
  7  6  2  0
  9  8  2  0
 10  9  1  0
 11  1  1  0
 11 10  2  0
 12 11  1  0
 13 12  2  0
 13  8  1  0
 15 14  1  0
 15  8  1  0
 16  5  1  0
 17 16  1  0
 18 17  1  0
 19 18  1  0
 20 19  2  0
 21 20  1  0
 22 21  2  0
 23 22  1  0
 24 23  2  0
 24 19  1  0
 25 23  1  0
 26 25  1  0
 27 22  1  0
 28 27  1  0
  4 29  1  0
  4 30  1  0
  5 31  1  6
  9 32  1  0
 10 33  1  0
 12 34  1  0
 13 35  1  0
 14 36  1  0
 14 37  1  0
 14 38  1  0
 16 39  1  0
 16 40  1  0
 17 41  1  0
 17 42  1  0
 18 43  1  0
 18 44  1  0
 20 45  1  0
 21 46  1  0
 24 47  1  0
 26 48  1  0
 26 49  1  0
 26 50  1  0
 28 51  1  0
 28 52  1  0
 28 53  1  0
M  CHG  1  16   1
M  END
$$$$
=
     RDKit          3D

 34 34  0  0  0  0  0  0  0  0999 V2000
   18.8240   15.3620    4.0440 C   0  0  0  0  0  0  0  0  0  0  0  0
   19.0400   16.5210    3.2970 C   0  0  0  0  0  0  0  0  0  0  0  0
   20.1850   17.2870    3.5200 C   0  0  0  0  0  0  0  0  0  0  0  0
   21.1030   16.9050    4.5050 C   0  0  0  0  0  0  0  0  0  0  0  0
   20.8430   15.7730    5.3100 C   0  0  0  0  0  0  0  0  0  0  0  0
   19.7150   14.9880    5.0530 C   0  0  0  0  0  0  0  0  0  0  0  0
   16.3810   15.0130    4.2560 N   0  0  0  0  0  0  0  0  0  0  0  0
   17.6150   14.5580    3.7840 C   0  0  0  0  0  0  0  0  0  0  0  0
   17.7630   13.5110    3.1580 O   0  0  0  0  0  0  0  0  0  0  0  0
   13.9030   14.9570    4.2430 C   0  0  0  0  0  0  0  0  0  0  0  0
   15.1960   14.2330    3.9000 C   0  0  0  0  0  0  0  0  0  0  0  0
   16.2010   16.1340    5.1860 C   0  0  0  0  0  0  0  0  0  0  0  0
   16.4870   15.7580    6.6290 C   0  0  0  0  0  0  0  0  0  0  0  0
   21.8070   15.3140    6.2300 N   0  0  0  0  0  0  0  0  0  0  0  0
   22.2640   17.5780    4.8050 O   0  0  0  0  0  0  0  0  0  0  0  0
   22.3320   18.9460    4.4230 C   0  0  0  0  0  0  0  0  0  0  0  0
   18.3097   16.8298    2.5346 H   0  0  0  0  0  0  0  0  0  0  0  0
   20.3662   18.1917    2.9211 H   0  0  0  0  0  0  0  0  0  0  0  0
   19.5296   14.0786    5.6435 H   0  0  0  0  0  0  0  0  0  0  0  0
   13.7954   15.0173    5.3361 H   0  0  0  0  0  0  0  0  0  0  0  0
   13.9281   15.9723    3.8205 H   0  0  0  0  0  0  0  0  0  0  0  0
   13.0505   14.4050    3.8205 H   0  0  0  0  0  0  0  0  0  0  0  0
   15.2230   13.2791    4.4472 H   0  0  0  0  0  0  0  0  0  0  0  0
   15.2133   14.0730    2.8118 H   0  0  0  0  0  0  0  0  0  0  0  0
   16.8833   16.9457    4.8932 H   0  0  0  0  0  0  0  0  0  0  0  0
   15.1470   16.4436    5.1288 H   0  0  0  0  0  0  0  0  0  0  0  0
   15.9594   16.4517    7.3001 H   0  0  0  0  0  0  0  0  0  0  0  0
   16.1396   14.7312    6.8161 H   0  0  0  0  0  0  0  0  0  0  0  0
   17.5693   15.8187    6.8161 H   0  0  0  0  0  0  0  0  0  0  0  0
   21.6101   14.4882    6.8133 H   0  0  0  0  0  0  0  0  0  0  0  0
   22.7084   15.8044    6.3191 H   0  0  0  0  0  0  0  0  0  0  0  0
   22.3634   19.5770    5.3235 H   0  0  0  0  0  0  0  0  0  0  0  0
   23.2397   19.1150    3.8250 H   0  0  0  0  0  0  0  0  0  0  0  0
   21.4456   19.2042    3.8250 H   0  0  0  0  0  0  0  0  0  0  0  0
  2  1  2  0
  3  2  1  0
  4  3  2  0
  5  4  1  0
  6  5  2  0
  6  1  1  0
  8  7  1  0
  8  1  1  0
  9  8  2  0
 11 10  1  0
 11  7  1  0
 12  7  1  0
 13 12  1  0
 14  5  1  0
 15  4  1  0
 16 15  1  0
  2 17  1  0
  3 18  1  0
  6 19  1  0
 10 20  1  0
 10 21  1  0
 10 22  1  0
 11 23  1  0
 11 24  1  0
 12 25  1  0
 12 26  1  0
 13 27  1  0
 13 28  1  0
 13 29  1  0
 14 30  1  0
 14 31  1  0
 16 32  1  0
 16 33  1  0
 16 34  1  0
M  END
$$$$
=
     RDKit          3D

 37 38  0  0  0  0  0  0  0  0999 V2000
   16.9800   15.3370    4.1580 C   0  0  0  0  0  0  0  0  0  0  0  0
   15.5800   15.2530    4.0800 C   0  0  0  0  0  0  0  0  0  0  0  0
   14.9650   14.1130    3.5530 C   0  0  0  0  0  0  0  0  0  0  0  0
   15.7510   13.0670    3.0820 C   0  0  0  0  0  0  0  0  0  0  0  0
   17.1470   13.1440    3.1200 C   0  0  0  0  0  0  0  0  0  0  0  0
   17.7520   14.2500    3.7140 C   0  0  0  0  0  0  0  0  0  0  0  0
   17.9460   12.0520    2.7300 N   0  0  0  0  0  0  0  0  0  0  0  0
   15.1930   11.9340    2.5590 O   0  0  0  0  0  0  0  0  0  0  0  0
   17.6560   16.5750    4.6750 C   0  0  0  0  0  0  0  0  0  0  0  0
   22.9720   18.3120    4.7860 C   0  0  0  0  0  0  0  0  0  0  0  0
   21.4800   18.5190    4.6180 N   0  0  0  0  0  4  0  0  0  0  0  0
   20.6690   18.0210    5.8170 C   0  0  0  0  0  0  0  0  0  0  0  0
   20.0460   16.6300    5.5640 C   0  0  0  0  0  0  0  0  0  0  0  0
   19.1480   16.6150    4.3280 N   0  0  0  0  0  4  0  0  0  0  0  0
   19.4800   17.6880    3.2830 C   0  0  0  0  0  0  0  0  0  0  0  0
   20.9910   18.0030    3.2610 C   0  0  0  0  0  0  0  0  0  0  0  0
   14.9625   16.0907    4.4363 H   0  0  0  0  0  0  0  0  0  0  0  0
   13.8679   14.0442    3.5114 H   0  0  0  0  0  0  0  0  0  0  0  0
   18.8449   14.2723    3.8365 H   0  0  0  0  0  0  0  0  0  0  0  0
   18.9727   12.1268    2.7645 H   0  0  0  0  0  0  0  0  0  0  0  0
   17.5037   11.1785    2.4102 H   0  0  0  0  0  0  0  0  0  0  0  0
   15.7736   11.2027    2.2300 H   0  0  0  0  0  0  0  0  0  0  0  0
   17.1668   17.4553    4.2326 H   0  0  0  0  0  0  0  0  0  0  0  0
   17.5669   16.5724    5.7714 H   0  0  0  0  0  0  0  0  0  0  0  0
   23.2191   18.2777    5.8573 H   0  0  0  0  0  0  0  0  0  0  0  0
   23.2665   17.3644    4.3113 H   0  0  0  0  0  0  0  0  0  0  0  0
   23.5133   19.1436    4.3113 H   0  0  0  0  0  0  0  0  0  0  0  0
   21.3078   19.5345    4.6075 H   0  0  0  0  0  0  0  0  0  0  0  0
   21.3328   17.9579    6.6919 H   0  0  0  0  0  0  0  0  0  0  0  0
   19.8476   18.7325    5.9877 H   0  0  0  0  0  0  0  0  0  0  0  0
   20.8562   15.8997    5.4219 H   0  0  0  0  0  0  0  0  0  0  0  0
   19.4249   16.3751    6.4353 H   0  0  0  0  0  0  0  0  0  0  0  0
   19.3696   15.7220    3.8649 H   0  0  0  0  0  0  0  0  0  0  0  0
   19.1750   17.3269    2.2897 H   0  0  0  0  0  0  0  0  0  0  0  0
   18.9379   18.6081    3.5467 H   0  0  0  0  0  0  0  0  0  0  0  0
   21.5431   17.0858    3.0080 H   0  0  0  0  0  0  0  0  0  0  0  0
   21.1676   18.7879    2.5108 H   0  0  0  0  0  0  0  0  0  0  0  0
  2  1  2  0
  3  2  1  0
  4  3  2  0
  5  4  1  0
  6  5  2  0
  6  1  1  0
  7  5  1  0
  8  4  1  0
  9  1  1  0
 11 10  1  0
 12 11  1  0
 13 12  1  0
 14  9  1  0
 14 13  1  0
 15 14  1  0
 16 15  1  0
 16 11  1  0
  2 17  1  0
  3 18  1  0
  6 19  1  0
  7 20  1  0
  7 21  1  0
  8 22  1  0
  9 23  1  0
  9 24  1  0
 10 25  1  0
 10 26  1  0
 10 27  1  0
 11 28  1  0
 12 29  1  0
 12 30  1  0
 13 31  1  0
 13 32  1  0
 14 33  1  0
 15 34  1  0
 15 35  1  0
 16 36  1  0
 16 37  1  0
M  CHG  2  11   1  14   1
M  END
$$$$
=
     RDKit          3D

 40 39  0  0  0  0  0  0  0  0999 V2000
   19.8400   17.8540    5.3410 O   0  0  0  0  0  0  0  0  0  0  0  0
   18.5970   17.2190    5.0320 C   0  0  0  0  0  0  0  0  0  0  0  0
   18.3400   16.0640    6.0170 C   0  0  2  0  0  0  0  0  0  0  0  0
   18.9340   14.7580    5.4420 C   0  0  0  0  0  0  0  0  0  0  0  0
   19.0270   14.7410    3.9220 C   0  0  0  0  0  0  0  0  0  0  0  0
   16.8380   15.8910    6.3500 C   0  0  0  0  0  0  0  0  0  0  0  0
   15.9040   16.2670    5.1950 C   0  0  0  0  0  0  0  0  0  0  0  0
   15.3130   14.2860    3.7010 C   0  0  0  0  0  0  0  0  0  0  0  0
   14.8880   15.1710    4.8610 C   0  0  0  0  0  0  0  0  0  0  0  0
   20.6170   18.1230    4.1750 C   0  0  0  0  0  0  0  0  0  0  0  0
   22.0840   18.0350    4.6030 C   0  0  1  0  0  0  0  0  0  0  0  0
   22.6560   19.3630    4.5810 O   0  0  0  0  0  0  0  0  0  0  0  0
   22.2690   17.4960    6.0230 C   0  0  0  0  0  0  0  0  0  0  0  0
   22.1300   16.0100    5.9780 N   0  0  0  0  0  4  0  0  0  0  0  0
   17.7823   17.9539    5.1110 H   0  0  0  0  0  0  0  0  0  0  0  0
   18.6390   16.8194    4.0080 H   0  0  0  0  0  0  0  0  0  0  0  0
   18.8390   16.3099    6.9659 H   0  0  0  0  0  0  0  0  0  0  0  0
   19.9460   14.6272    5.8527 H   0  0  0  0  0  0  0  0  0  0  0  0
   18.2537   13.9430    5.7301 H   0  0  0  0  0  0  0  0  0  0  0  0
   20.0676   14.5508    3.6204 H   0  0  0  0  0  0  0  0  0  0  0  0
   18.3788   13.9465    3.5238 H   0  0  0  0  0  0  0  0  0  0  0  0
   18.7018   15.7135    3.5238 H   0  0  0  0  0  0  0  0  0  0  0  0
   16.6595   14.8377    6.6123 H   0  0  0  0  0  0  0  0  0  0  0  0
   16.6122   16.5746    7.1817 H   0  0  0  0  0  0  0  0  0  0  0  0
   15.3558   17.1797    5.4714 H   0  0  0  0  0  0  0  0  0  0  0  0
   16.5301   16.4159    4.3029 H   0  0  0  0  0  0  0  0  0  0  0  0
   15.7582   13.3589    4.0911 H   0  0  0  0  0  0  0  0  0  0  0  0
   14.4346   14.0405    3.0861 H   0  0  0  0  0  0  0  0  0  0  0  0
   16.0538   14.8181    3.0861 H   0  0  0  0  0  0  0  0  0  0  0  0
   13.9318   15.6493    4.6023 H   0  0  0  0  0  0  0  0  0  0  0  0
   14.8041   14.5254    5.7477 H   0  0  0  0  0  0  0  0  0  0  0  0
   20.4030   17.3775    3.3950 H   0  0  0  0  0  0  0  0  0  0  0  0
   20.3818   19.1138    3.7591 H   0  0  0  0  0  0  0  0  0  0  0  0
   22.5738   17.3439    3.9012 H   0  0  0  0  0  0  0  0  0  0  0  0
   22.7921   19.6791    5.5093 H   0  0  0  0  0  0  0  0  0  0  0  0
   23.2678   17.7657    6.3968 H   0  0  0  0  0  0  0  0  0  0  0  0
   21.5140   17.9287    6.6958 H   0  0  0  0  0  0  0  0  0  0  0  0
   22.0953   15.6392    6.9383 H   0  0  0  0  0  0  0  0  0  0  0  0
   21.2621   15.7612    5.4823 H   0  0  0  0  0  0  0  0  0  0  0  0
   22.9367   15.6046    5.4823 H   0  0  0  0  0  0  0  0  0  0  0  0
  2  1  1  0
  3  2  1  0
  4  3  1  0
  5  4  1  0
  6  3  1  0
  7  6  1  0
  9  8  1  0
  9  7  1  0
 10  1  1  0
 11 10  1  0
 12 11  1  0
 13 11  1  0
 14 13  1  0
  2 15  1  0
  2 16  1  0
  3 17  1  1
  4 18  1  0
  4 19  1  0
  5 20  1  0
  5 21  1  0
  5 22  1  0
  6 23  1  0
  6 24  1  0
  7 25  1  0
  7 26  1  0
  8 27  1  0
  8 28  1  0
  8 29  1  0
  9 30  1  0
  9 31  1  0
 10 32  1  0
 10 33  1  0
 11 34  1  6
 12 35  1  0
 13 36  1  0
 13 37  1  0
 14 38  1  0
 14 39  1  0
 14 40  1  0
M  CHG  1  14   1
M  END
$$$$
=
     RDKit          3D

 52 53  0  0  0  0  0  0  0  0999 V2000
   25.9580   25.5000   12.8060 N   0  0  0  0  0  0  0  0  0  0  0  0
   26.0170   24.0550   13.0780 C   0  0  0  0  0  0  0  0  0  0  0  0
   27.2140   23.4090   12.3850 C   0  0  0  0  0  0  0  0  0  0  0  0
   28.5340   24.1100   12.7210 C   0  0  0  0  0  0  0  0  0  0  0  0
   28.4050   25.6410   12.7940 C   0  0  1  0  0  0  0  0  0  0  0  0
   27.1030   26.1180   12.1140 C   0  0  0  0  0  0  0  0  0  0  0  0
   24.0930   26.7060   13.8850 C   0  0  0  0  0  0  0  0  0  0  0  0
   22.7870   27.2300   13.8270 C   0  0  0  0  0  0  0  0  0  0  0  0
   22.0450   27.1660   12.6520 C   0  0  0  0  0  0  0  0  0  0  0  0
   22.6670   26.6650   11.5120 C   0  0  0  0  0  0  0  0  0  0  0  0
   23.9600   26.1260   11.5720 C   0  0  0  0  0  0  0  0  0  0  0  0
   24.7020   26.1020   12.7640 C   0  0  0  0  0  0  0  0  0  0  0  0
   20.8020   27.7970   12.5630 N   0  0  0  0  0  0  0  0  0  0  0  0
   24.7850   26.8900   15.1760 C   0  0  0  0  0  0  0  0  0  0  0  0
   25.8380   27.4970   15.2940 O   0  0  0  0  0  0  0  0  0  0  0  0
   23.8590   27.0190   17.3130 C   0  0  0  0  0  0  0  0  0  0  0  0
   24.1210   26.2260   16.1570 O   0  0  0  0  0  0  0  0  0  0  0  0
   28.4240   26.0820   14.1890 N   0  0  0  0  0  0  0  0  0  0  0  0
   29.5860   26.4980   14.7700 C   0  0  0  0  0  0  0  0  0  0  0  0
   30.7030   26.2790   14.3300 O   0  0  0  0  0  0  0  0  0  0  0  0
   29.2850   27.2120   15.8780 O   0  0  0  0  0  0  0  0  0  0  0  0
   29.4100   28.6560   15.8830 C   0  0  0  0  0  0  0  0  0  0  0  0
   28.5160   29.1220   17.0430 C   0  0  0  0  0  0  0  0  0  0  0  0
   30.8500   29.0910   16.1690 C   0  0  0  0  0  0  0  0  0  0  0  0
   28.8730   29.2640   14.5810 C   0  0  0  0  0  0  0  0  0  0  0  0
   26.1034   23.8978   14.1633 H   0  0  0  0  0  0  0  0  0  0  0  0
   25.0985   23.5906   12.6897 H   0  0  0  0  0  0  0  0  0  0  0  0
   27.2814   22.3583   12.7035 H   0  0  0  0  0  0  0  0  0  0  0  0
   27.0575   23.4929   11.2994 H   0  0  0  0  0  0  0  0  0  0  0  0
   28.8872   23.7420   13.6956 H   0  0  0  0  0  0  0  0  0  0  0  0
   29.2420   23.8796   11.9113 H   0  0  0  0  0  0  0  0  0  0  0  0
   29.2599   26.0822   12.2605 H   0  0  0  0  0  0  0  0  0  0  0  0
   27.1046   25.8149   11.0566 H   0  0  0  0  0  0  0  0  0  0  0  0
   27.0293   27.2141   12.1702 H   0  0  0  0  0  0  0  0  0  0  0  0
   22.3483   27.6956   14.7218 H   0  0  0  0  0  0  0  0  0  0  0  0
   22.1359   26.6924   10.5491 H   0  0  0  0  0  0  0  0  0  0  0  0
   24.4068   25.7092   10.6573 H   0  0  0  0  0  0  0  0  0  0  0  0
   20.2592   27.7446   11.6892 H   0  0  0  0  0  0  0  0  0  0  0  0
   20.4282   28.3147   13.3712 H   0  0  0  0  0  0  0  0  0  0  0  0
   24.0554   26.4247   18.2175 H   0  0  0  0  0  0  0  0  0  0  0  0
   24.5126   27.9038   17.3065 H   0  0  0  0  0  0  0  0  0  0  0  0
   22.8070   27.3402   17.3065 H   0  0  0  0  0  0  0  0  0  0  0  0
   27.5521   26.0783   14.7373 H   0  0  0  0  0  0  0  0  0  0  0  0
   28.9968   28.8714   18.0001 H   0  0  0  0  0  0  0  0  0  0  0  0
   28.3708   30.2105   16.9796 H   0  0  0  0  0  0  0  0  0  0  0  0
   27.5405   28.6176   16.9796 H   0  0  0  0  0  0  0  0  0  0  0  0
   31.0094   29.1391   17.2563 H   0  0  0  0  0  0  0  0  0  0  0  0
   31.5473   28.3634   15.7281 H   0  0  0  0  0  0  0  0  0  0  0  0
   31.0278   30.0829   15.7281 H   0  0  0  0  0  0  0  0  0  0  0  0
   28.1619   30.0691   14.8182 H   0  0  0  0  0  0  0  0  0  0  0  0
   29.7092   29.6740   13.9956 H   0  0  0  0  0  0  0  0  0  0  0  0
   28.3628   28.4849   13.9956 H   0  0  0  0  0  0  0  0  0  0  0  0
  2  1  1  0
  3  2  1  0
  4  3  1  0
  5  4  1  0
  6  1  1  0
  6  5  1  0
  8  7  2  0
  9  8  1  0
 10  9  2  0
 11 10  1  0
 12 11  2  0
 12  7  1  0
 12  1  1  0
 13  9  1  0
 14  7  1  0
 15 14  2  0
 17 14  1  0
 17 16  1  0
 18  5  1  0
 19 18  1  0
 20 19  2  0
 21 19  1  0
 22 21  1  0
 23 22  1  0
 24 22  1  0
 25 22  1  0
  2 26  1  0
  2 27  1  0
  3 28  1  0
  3 29  1  0
  4 30  1  0
  4 31  1  0
  5 32  1  6
  6 33  1  0
  6 34  1  0
  8 35  1  0
 10 36  1  0
 11 37  1  0
 13 38  1  0
 13 39  1  0
 16 40  1  0
 16 41  1  0
 16 42  1  0
 18 43  1  0
 23 44  1  0
 23 45  1  0
 23 46  1  0
 24 47  1  0
 24 48  1  0
 24 49  1  0
 25 50  1  0
 25 51  1  0
 25 52  1  0
M  END
$$$$
=
     RDKit          3D

 27 27  0  0  0  0  0  0  0  0999 V2000
   19.1590   16.7350    4.6460 C   0  0  1  0  0  0  0  0  0  0  0  0
   19.6070   18.0690    4.0600 C   0  0  0  0  0  0  0  0  0  0  0  0
   21.0280   17.9670    3.5900 N   0  0  0  0  0  4  0  0  0  0  0  0
   21.9880   17.5770    4.6620 C   0  0  0  0  0  0  0  0  0  0  0  0
   21.5690   16.2330    5.2330 C   0  0  0  0  0  0  0  0  0  0  0  0
   20.1190   16.2450    5.7480 C   0  0  2  0  0  0  0  0  0  0  0  0
   19.7290   14.8560    6.2390 C   0  0  0  0  0  0  0  0  0  0  0  0
   18.7040   14.9340    7.1100 F   0  0  0  0  0  0  0  0  0  0  0  0
   19.3540   14.0620    5.2200 F   0  0  0  0  0  0  0  0  0  0  0  0
   20.7730   14.2770    6.8670 F   0  0  0  0  0  0  0  0  0  0  0  0
   17.7750   16.9660    5.2010 C   0  0  0  0  0  0  0  0  0  0  0  0
   17.5410   17.7990    6.0620 O   0  0  0  0  0  0  0  0  0  0  0  0
   15.8480   15.6680    5.4780 C   0  0  0  0  0  0  0  0  0  0  0  0
   16.8800   16.1450    4.6070 O   0  0  0  0  0  0  0  0  0  0  0  0
   19.1596   15.9506    3.8749 H   0  0  0  0  0  0  0  0  0  0  0  0
   18.9593   18.3303    3.2102 H   0  0  0  0  0  0  0  0  0  0  0  0
   19.5358   18.8475    4.8339 H   0  0  0  0  0  0  0  0  0  0  0  0
   21.0728   17.2613    2.8411 H   0  0  0  0  0  0  0  0  0  0  0  0
   21.3051   18.9041    3.2645 H   0  0  0  0  0  0  0  0  0  0  0  0
   23.0009   17.4993    4.2401 H   0  0  0  0  0  0  0  0  0  0  0  0
   21.9868   18.3366    5.4576 H   0  0  0  0  0  0  0  0  0  0  0  0
   21.6586   15.4704    4.4454 H   0  0  0  0  0  0  0  0  0  0  0  0
   22.2274   16.0088    6.0852 H   0  0  0  0  0  0  0  0  0  0  0  0
   20.0450   16.9443    6.5939 H   0  0  0  0  0  0  0  0  0  0  0  0
   16.1563   15.8105    6.5242 H   0  0  0  0  0  0  0  0  0  0  0  0
   14.9207   16.2288    5.2894 H   0  0  0  0  0  0  0  0  0  0  0  0
   15.6744   14.5983    5.2894 H   0  0  0  0  0  0  0  0  0  0  0  0
  2  1  1  0
  3  2  1  0
  4  3  1  0
  5  4  1  0
  6  5  1  0
  6  1  1  0
  7  6  1  0
  8  7  1  0
  9  7  1  0
 10  7  1  0
 11  1  1  0
 12 11  2  0
 14 13  1  0
 14 11  1  0
  1 15  1  6
  2 16  1  0
  2 17  1  0
  3 18  1  0
  3 19  1  0
  4 20  1  0
  4 21  1  0
  5 22  1  0
  5 23  1  0
  6 24  1  1
 13 25  1  0
 13 26  1  0
 13 27  1  0
M  CHG  1   3   1
M  END
$$$$
=
     RDKit          3D

 37 38  0  0  0  0  0  0  0  0999 V2000
   21.4560   18.3040    5.5120 C   0  0  2  0  0  0  0  0  0  0  0  0
   21.8890   16.9080    5.9650 C   0  0  0  0  0  0  0  0  0  0  0  0
   20.6700   16.0060    6.1650 C   0  0  0  0  0  0  0  0  0  0  0  0
   19.9390   15.6960    4.8440 C   0  0  2  0  0  0  0  0  0  0  0  0
   20.0280   16.9140    3.9260 N   0  0  0  0  0  4  0  0  0  0  0  0
   20.1960   18.2480    4.5980 C   0  0  0  0  0  0  0  0  0  0  0  0
   18.4600   15.2530    5.0200 C   0  0  0  0  0  0  0  0  0  0  0  0
   17.6560   15.4360    3.7150 C   0  0  0  0  0  0  0  0  0  0  0  0
   16.1860   15.0520    3.8770 C   0  0  0  0  0  0  0  0  0  0  0  0
   15.5250   15.8180    5.0130 C   0  0  0  0  0  0  0  0  0  0  0  0
   16.2950   15.6410    6.3140 C   0  0  0  0  0  0  0  0  0  0  0  0
   17.7640   16.0300    6.1610 C   0  0  0  0  0  0  0  0  0  0  0  0
   22.6330   18.9700    4.8600 N   0  0  0  0  0  4  0  0  0  0  0  0
   21.1476   18.9072    6.3786 H   0  0  0  0  0  0  0  0  0  0  0  0
   22.5441   16.4663    5.1996 H   0  0  0  0  0  0  0  0  0  0  0  0
   22.4266   16.9956    6.9207 H   0  0  0  0  0  0  0  0  0  0  0  0
   21.0026   15.0586    6.6143 H   0  0  0  0  0  0  0  0  0  0  0  0
   19.9645   16.5395    6.8190 H   0  0  0  0  0  0  0  0  0  0  0  0
   20.4480   14.8301    4.3955 H   0  0  0  0  0  0  0  0  0  0  0  0
   20.8335   16.7755    3.2992 H   0  0  0  0  0  0  0  0  0  0  0  0
   19.1174   16.9622    3.4472 H   0  0  0  0  0  0  0  0  0  0  0  0
   20.2880   19.0236    3.8234 H   0  0  0  0  0  0  0  0  0  0  0  0
   19.3147   18.4133    5.2352 H   0  0  0  0  0  0  0  0  0  0  0  0
   18.4827   14.1844    5.2801 H   0  0  0  0  0  0  0  0  0  0  0  0
   17.7138   16.4912    3.4097 H   0  0  0  0  0  0  0  0  0  0  0  0
   18.0941   14.7717    2.9555 H   0  0  0  0  0  0  0  0  0  0  0  0
   15.6542   15.2749    2.9402 H   0  0  0  0  0  0  0  0  0  0  0  0
   16.1365   13.9788    4.1134 H   0  0  0  0  0  0  0  0  0  0  0  0
   15.4951   16.8871    4.7558 H   0  0  0  0  0  0  0  0  0  0  0  0
   14.5070   15.4255    5.1533 H   0  0  0  0  0  0  0  0  0  0  0  0
   15.8375   16.2751    7.0877 H   0  0  0  0  0  0  0  0  0  0  0  0
   16.2502   14.5787    6.5961 H   0  0  0  0  0  0  0  0  0  0  0  0
   17.8242   17.1067    5.9440 H   0  0  0  0  0  0  0  0  0  0  0  0
   18.2782   15.7807    7.1009 H   0  0  0  0  0  0  0  0  0  0  0  0
   23.2692   19.3300    5.5856 H   0  0  0  0  0  0  0  0  0  0  0  0
   23.1328   18.2865    4.2735 H   0  0  0  0  0  0  0  0  0  0  0  0
   22.3045   19.7504    4.2735 H   0  0  0  0  0  0  0  0  0  0  0  0
  2  1  1  0
  3  2  1  0
  4  3  1  0
  5  4  1  0
  6  5  1  0
  6  1  1  0
  7  4  1  0
  8  7  1  0
  9  8  1  0
 10  9  1  0
 11 10  1  0
 12 11  1  0
 12  7  1  0
 13  1  1  0
  1 14  1  1
  2 15  1  0
  2 16  1  0
  3 17  1  0
  3 18  1  0
  4 19  1  6
  5 20  1  0
  5 21  1  0
  6 22  1  0
  6 23  1  0
  7 24  1  0
  8 25  1  0
  8 26  1  0
  9 27  1  0
  9 28  1  0
 10 29  1  0
 10 30  1  0
 11 31  1  0
 11 32  1  0
 12 33  1  0
 12 34  1  0
 13 35  1  0
 13 36  1  0
 13 37  1  0
M  CHG  2   5   1  13   1
M  END
$$$$
=
     RDKit          3D

 32 34  0  0  0  0  0  0  0  0999 V2000
   19.3480   17.2580    2.2700 C   0  0  0  0  0  0  0  0  0  0  0  0
   19.6520   16.6900    3.5790 N   0  0  0  0  0  0  0  0  0  0  0  0
   20.7660   17.1760    4.2910 C   0  0  0  0  0  0  0  0  0  0  0  0
   21.5330   18.2750    3.8780 C   0  0  0  0  0  0  0  0  0  0  0  0
   22.6360   18.7180    4.6220 C   0  0  0  0  0  0  0  0  0  0  0  0
   23.0070   18.0640    5.7940 C   0  0  0  0  0  0  0  0  0  0  0  0
   22.2770   16.9640    6.2260 C   0  0  0  0  0  0  0  0  0  0  0  0
   21.1740   16.5340    5.4790 C   0  0  0  0  0  0  0  0  0  0  0  0
   20.4150   15.3480    5.9220 C   0  0  0  0  0  0  0  0  0  0  0  0
   20.7260   14.6670    6.8860 O   0  0  0  0  0  0  0  0  0  0  0  0
   19.2880   15.0540    5.2020 N   0  0  0  0  0  0  0  0  0  0  0  0
   18.6240   16.0650    4.4100 C   0  0  1  0  0  0  0  0  0  0  0  0
   17.8560   17.0940    5.2960 C   0  0  0  0  0  0  0  0  0  0  0  0
   16.5810   16.3820    5.6890 N   0  0  0  0  0  4  0  0  0  0  0  0
   16.3760   15.2600    4.7160 C   0  0  0  0  0  0  0  0  0  0  0  0
   17.4510   15.4390    3.6530 C   0  0  0  0  0  0  0  0  0  0  0  0
   18.8325   18.2211    2.3990 H   0  0  0  0  0  0  0  0  0  0  0  0
   20.2830   17.4144    1.7120 H   0  0  0  0  0  0  0  0  0  0  0  0
   18.6993   16.5667    1.7120 H   0  0  0  0  0  0  0  0  0  0  0  0
   21.2635   18.8010    2.9502 H   0  0  0  0  0  0  0  0  0  0  0  0
   23.2126   19.5889    4.2771 H   0  0  0  0  0  0  0  0  0  0  0  0
   23.8727   18.4162    6.3741 H   0  0  0  0  0  0  0  0  0  0  0  0
   22.5632   16.4353    7.1472 H   0  0  0  0  0  0  0  0  0  0  0  0
   18.9072   14.0973    5.2250 H   0  0  0  0  0  0  0  0  0  0  0  0
   18.4454   17.3553    6.1872 H   0  0  0  0  0  0  0  0  0  0  0  0
   17.6605   18.0375    4.7654 H   0  0  0  0  0  0  0  0  0  0  0  0
   16.6669   16.0079    6.6448 H   0  0  0  0  0  0  0  0  0  0  0  0
   15.7813   17.0309    5.6697 H   0  0  0  0  0  0  0  0  0  0  0  0
   16.4918   14.2889    5.2196 H   0  0  0  0  0  0  0  0  0  0  0  0
   15.3659   15.2779    4.2807 H   0  0  0  0  0  0  0  0  0  0  0  0
   17.7382   14.4690    3.2209 H   0  0  0  0  0  0  0  0  0  0  0  0
   17.1125   16.0602    2.8107 H   0  0  0  0  0  0  0  0  0  0  0  0
  2  1  1  0
  3  2  1  0
  4  3  1  0
  5  4  2  0
  6  5  1  0
  7  6  2  0
  8  3  2  0
  8  7  1  0
  9  8  1  0
 10  9  2  0
 11  9  1  0
 12 11  1  1
 12  2  1  0
 13 12  1  0
 14 13  1  0
 15 14  1  0
 16 15  1  0
 16 12  1  0
  1 17  1  0
  1 18  1  0
  1 19  1  0
  4 20  1  0
  5 21  1  0
  6 22  1  0
  7 23  1  0
 11 24  1  0
 13 25  1  0
 13 26  1  0
 14 27  1  0
 14 28  1  0
 15 29  1  0
 15 30  1  0
 16 31  1  0
 16 32  1  0
M  CHG  1  14   1
M  END
$$$$
=
     RDKit          3D

 38 40  0  0  0  0  0  0  0  0999 V2000
   16.8670   14.2380    3.6270 C   0  0  0  0  0  0  0  0  0  0  0  0
   17.7390   13.3580    3.1750 N   0  0  0  0  0  0  0  0  0  0  0  0
   17.0200   12.3020    2.6940 C   0  0  0  0  0  0  0  0  0  0  0  0
   15.6800   12.5210    2.8760 C   0  0  0  0  0  0  0  0  0  0  0  0
   15.5810   13.7620    3.4570 N   0  0  0  0  0  0  0  0  0  0  0  0
   18.3630   17.8060    5.4390 C   0  0  0  0  0  0  0  0  0  0  0  0
   17.2310   17.1340    6.2090 C   0  0  0  0  0  0  0  0  0  0  0  0
   16.8940   15.7180    5.7210 C   0  0  0  0  0  0  0  0  0  0  0  0
   17.3260   15.5110    4.2720 C   0  0  1  0  0  0  0  0  0  0  0  0
   18.8240   15.7500    4.0590 C   0  0  0  0  0  0  0  0  0  0  0  0
   19.3590   16.7760    5.0240 N   0  0  0  0  0  4  0  0  0  0  0  0
   14.3070   14.3360    3.8710 C   0  0  0  0  0  0  0  0  0  0  0  0
   13.2220   13.2920    4.1220 C   0  0  0  0  0  0  0  0  0  0  0  0
   12.0770   13.1530    3.0830 C   0  0  0  0  0  0  0  0  0  0  0  0
   11.2450   14.1190    3.9480 C   0  0  0  0  0  0  0  0  0  0  0  0
   12.1320   13.7190    5.1410 C   0  0  0  0  0  0  0  0  0  0  0  0
   17.4538   11.4051    2.2278 H   0  0  0  0  0  0  0  0  0  0  0  0
   14.8545   11.8437    2.6118 H   0  0  0  0  0  0  0  0  0  0  0  0
   17.9553   18.3031    4.5464 H   0  0  0  0  0  0  0  0  0  0  0  0
   18.8523   18.5526    6.0818 H   0  0  0  0  0  0  0  0  0  0  0  0
   17.5218   17.0741    7.2682 H   0  0  0  0  0  0  0  0  0  0  0  0
   16.3316   17.7467    6.0489 H   0  0  0  0  0  0  0  0  0  0  0  0
   17.4140   14.9869    6.3574 H   0  0  0  0  0  0  0  0  0  0  0  0
   15.8041   15.5816    5.7802 H   0  0  0  0  0  0  0  0  0  0  0  0
   16.7770   16.2986    3.7350 H   0  0  0  0  0  0  0  0  0  0  0  0
   19.3625   14.8026    4.2087 H   0  0  0  0  0  0  0  0  0  0  0  0
   18.9729   16.1258    3.0360 H   0  0  0  0  0  0  0  0  0  0  0  0
   19.6863   16.2851    5.8683 H   0  0  0  0  0  0  0  0  0  0  0  0
   20.1143   17.2764    4.5340 H   0  0  0  0  0  0  0  0  0  0  0  0
   14.4661   14.9032    4.8000 H   0  0  0  0  0  0  0  0  0  0  0  0
   13.9569   14.9750    3.0470 H   0  0  0  0  0  0  0  0  0  0  0  0
   13.9203   12.4592    4.2917 H   0  0  0  0  0  0  0  0  0  0  0  0
   12.3217   13.5334    2.0803 H   0  0  0  0  0  0  0  0  0  0  0  0
   11.6875   12.1678    2.7870 H   0  0  0  0  0  0  0  0  0  0  0  0
   11.3211   15.1766    3.6554 H   0  0  0  0  0  0  0  0  0  0  0  0
   10.1482   14.0499    3.9966 H   0  0  0  0  0  0  0  0  0  0  0  0
   12.4211   14.5548    5.7951 H   0  0  0  0  0  0  0  0  0  0  0  0
   11.7711   13.0283    5.9173 H   0  0  0  0  0  0  0  0  0  0  0  0
  2  1  2  0
  3  2  1  0
  4  3  2  0
  5  4  1  0
  5  1  1  0
  7  6  1  0
  8  7  1  0
  9  1  1  0
  9  8  1  0
 10  9  1  0
 11 10  1  0
 11  6  1  0
 12  5  1  0
 13 12  1  0
 14 13  1  0
 15 14  1  0
 16 15  1  0
 16 13  1  0
  3 17  1  0
  4 18  1  0
  6 19  1  0
  6 20  1  0
  7 21  1  0
  7 22  1  0
  8 23  1  0
  8 24  1  0
  9 25  1  6
 10 26  1  0
 10 27  1  0
 11 28  1  0
 11 29  1  0
 12 30  1  0
 12 31  1  0
 13 32  1  0
 14 33  1  0
 14 34  1  0
 15 35  1  0
 15 36  1  0
 16 37  1  0
 16 38  1  0
M  CHG  1  11   1
M  END
$$$$
=
     RDKit          3D

 30 31  0  0  0  0  0  0  0  0999 V2000
   19.0280   15.5320    3.8760 N   0  0  0  0  0  0  0  0  0  0  0  0
   23.2390   18.2680    6.2520 F   0  0  0  0  0  0  0  0  0  0  0  0
   22.2160   17.6070    5.6960 C   0  0  0  0  0  0  0  0  0  0  0  0
   21.8930   16.3350    6.1590 C   0  0  0  0  0  0  0  0  0  0  0  0
   20.8290   15.6270    5.5850 C   0  0  0  0  0  0  0  0  0  0  0  0
   20.0650   16.2010    4.5630 C   0  0  0  0  0  0  0  0  0  0  0  0
   20.4510   17.4800    4.1030 C   0  0  0  0  0  0  0  0  0  0  0  0
   21.5040   18.1910    4.6630 C   0  0  0  0  0  0  0  0  0  0  0  0
   19.7570   18.0360    3.0960 F   0  0  0  0  0  0  0  0  0  0  0  0
   17.7700   15.2620    4.5630 C   0  0  1  0  0  0  0  0  0  0  0  0
   17.0450   16.4920    5.0870 C   0  0  0  0  0  0  0  0  0  0  0  0
   15.5610   16.0880    5.1100 C   0  0  0  0  0  0  0  0  0  0  0  0
   15.4450   14.7780    4.3180 C   0  0  0  0  0  0  0  0  0  0  0  0
   16.7480   14.7140    3.5510 C   0  0  2  0  0  0  0  0  0  0  0  0
   17.1240   13.3500    3.1250 N   0  0  0  0  0  4  0  0  0  0  0  0
   19.1591   15.2372    2.8978 H   0  0  0  0  0  0  0  0  0  0  0  0
   22.4742   15.8846    6.9772 H   0  0  0  0  0  0  0  0  0  0  0  0
   20.5927   14.6131    5.9402 H   0  0  0  0  0  0  0  0  0  0  0  0
   21.7658   19.1939    4.2946 H   0  0  0  0  0  0  0  0  0  0  0  0
   18.0620   14.5927    5.3857 H   0  0  0  0  0  0  0  0  0  0  0  0
   17.3938   16.7466    6.0987 H   0  0  0  0  0  0  0  0  0  0  0  0
   17.2258   17.3798    4.4632 H   0  0  0  0  0  0  0  0  0  0  0  0
   15.2264   15.9346    6.1466 H   0  0  0  0  0  0  0  0  0  0  0  0
   14.9314   16.8738    4.6671 H   0  0  0  0  0  0  0  0  0  0  0  0
   15.3441   13.9167    4.9948 H   0  0  0  0  0  0  0  0  0  0  0  0
   14.5606   14.7487    3.6645 H   0  0  0  0  0  0  0  0  0  0  0  0
   16.6862   15.2784    2.6088 H   0  0  0  0  0  0  0  0  0  0  0  0
   17.2858   12.7632    3.9559 H   0  0  0  0  0  0  0  0  0  0  0  0
   16.3634   12.9445    2.5611 H   0  0  0  0  0  0  0  0  0  0  0  0
   17.9849   13.3915    2.5611 H   0  0  0  0  0  0  0  0  0  0  0  0
  3  2  1  0
  4  3  2  0
  5  4  1  0
  6  1  1  0
  6  5  2  0
  7  6  1  0
  8  7  2  0
  8  3  1  0
  9  7  1  0
 10  1  1  0
 11 10  1  0
 12 11  1  0
 13 12  1  0
 14 13  1  0
 14 10  1  0
 15 14  1  0
  1 16  1  0
  4 17  1  0
  5 18  1  0
  8 19  1  0
 10 20  1  1
 11 21  1  0
 11 22  1  0
 12 23  1  0
 12 24  1  0
 13 25  1  0
 13 26  1  0
 14 27  1  6
 15 28  1  0
 15 29  1  0
 15 30  1  0
M  CHG  1  15   1
M  END
$$$$
=
     RDKit          3D

 41 41  0  0  0  0  0  0  0  0999 V2000
   19.3100   17.3700    5.1040 C   0  0  0  0  0  0  0  0  0  0  0  0
   19.7670   18.6880    5.2590 C   0  0  0  0  0  0  0  0  0  0  0  0
   21.1160   18.9790    5.5140 C   0  0  0  0  0  0  0  0  0  0  0  0
   22.0620   17.9640    5.6090 C   0  0  0  0  0  0  0  0  0  0  0  0
   21.6170   16.6470    5.5600 C   0  0  0  0  0  0  0  0  0  0  0  0
   20.2630   16.3480    5.3070 C   0  0  0  0  0  0  0  0  0  0  0  0
   23.3790   18.2560    5.9760 N   0  0  0  0  0  0  0  0  0  0  0  0
   17.9450   17.0800    4.9390 N   0  0  0  0  0  0  0  0  0  0  0  0
   17.0350   17.1900    6.0740 C   0  0  0  0  0  0  0  0  0  0  0  0
   16.6550   15.8110    6.6220 C   0  0  0  0  0  0  0  0  0  0  0  0
   15.4390   15.2050    5.9250 C   0  0  0  0  0  0  0  0  0  0  0  0
   15.1500   15.9600    4.7550 O   0  0  0  0  0  0  0  0  0  0  0  0
   14.2610   13.8070    4.0260 C   0  0  0  0  0  0  0  0  0  0  0  0
   14.8050   15.1650    3.6220 C   0  0  0  0  0  0  0  0  0  0  0  0
   19.8750   14.9230    5.2110 C   0  0  0  0  0  0  0  0  0  0  0  0
   19.7560   14.1810    6.1720 O   0  0  0  0  0  0  0  0  0  0  0  0
   19.6790   14.5910    3.9090 O   0  0  0  0  0  0  0  0  0  0  0  0
   18.3570   14.1460    3.5770 C   0  0  0  0  0  0  0  0  0  0  0  0
   18.3530   12.6460    3.3490 C   0  0  0  0  0  0  0  0  0  0  0  0
   19.0475   19.5162    5.1783 H   0  0  0  0  0  0  0  0  0  0  0  0
   21.4299   20.0256    5.6406 H   0  0  0  0  0  0  0  0  0  0  0  0
   22.3322   15.8269    5.7210 H   0  0  0  0  0  0  0  0  0  0  0  0
   24.0744   17.4993    6.0444 H   0  0  0  0  0  0  0  0  0  0  0  0
   23.6539   19.2279    6.1780 H   0  0  0  0  0  0  0  0  0  0  0  0
   17.5873   16.7901    4.0177 H   0  0  0  0  0  0  0  0  0  0  0  0
   17.5250   17.7690    6.8707 H   0  0  0  0  0  0  0  0  0  0  0  0
   16.1172   17.6922    5.7342 H   0  0  0  0  0  0  0  0  0  0  0  0
   17.5103   15.1326    6.4871 H   0  0  0  0  0  0  0  0  0  0  0  0
   16.3953   15.9394    7.6832 H   0  0  0  0  0  0  0  0  0  0  0  0
   15.6549   14.1628    5.6471 H   0  0  0  0  0  0  0  0  0  0  0  0
   14.5735   15.2266    6.6036 H   0  0  0  0  0  0  0  0  0  0  0  0
   14.2322   13.7352    5.1233 H   0  0  0  0  0  0  0  0  0  0  0  0
   13.2445   13.6848    3.6238 H   0  0  0  0  0  0  0  0  0  0  0  0
   14.9120   13.0168    3.6238 H   0  0  0  0  0  0  0  0  0  0  0  0
   15.7031   15.0185    3.0040 H   0  0  0  0  0  0  0  0  0  0  0  0
   14.0193   15.6934    3.0622 H   0  0  0  0  0  0  0  0  0  0  0  0
   17.6729   14.3901    4.4031 H   0  0  0  0  0  0  0  0  0  0  0  0
   18.0281   14.6507    2.6566 H   0  0  0  0  0  0  0  0  0  0  0  0
   18.3516   12.1277    4.3192 H   0  0  0  0  0  0  0  0  0  0  0  0
   17.4541   12.3638    2.7812 H   0  0  0  0  0  0  0  0  0  0  0  0
   19.2504   12.3590    2.7812 H   0  0  0  0  0  0  0  0  0  0  0  0
  2  1  2  0
  3  2  1  0
  4  3  2  0
  5  4  1  0
  6  1  1  0
  6  5  2  0
  7  4  1  0
  8  1  1  0
  9  8  1  0
 10  9  1  0
 11 10  1  0
 12 11  1  0
 14 13  1  0
 14 12  1  0
 15  6  1  0
 16 15  2  0
 17 15  1  0
 18 17  1  0
 19 18  1  0
  2 20  1  0
  3 21  1  0
  5 22  1  0
  7 23  1  0
  7 24  1  0
  8 25  1  0
  9 26  1  0
  9 27  1  0
 10 28  1  0
 10 29  1  0
 11 30  1  0
 11 31  1  0
 13 32  1  0
 13 33  1  0
 13 34  1  0
 14 35  1  0
 14 36  1  0
 18 37  1  0
 18 38  1  0
 19 39  1  0
 19 40  1  0
 19 41  1  0
M  END
$$$$
=
     RDKit          3D

 33 34  0  0  0  0  0  0  0  0999 V2000
   14.0860   14.4780    4.1750 C   0  0  0  0  0  0  0  0  0  0  0  0
   14.8390   15.5380    4.6840 C   0  0  0  0  0  0  0  0  0  0  0  0
   16.2190   15.5780    4.4750 C   0  0  0  0  0  0  0  0  0  0  0  0
   16.8640   14.5510    3.7730 C   0  0  0  0  0  0  0  0  0  0  0  0
   16.0800   13.5550    3.1430 C   0  0  0  0  0  0  0  0  0  0  0  0
   14.7100   13.4820    3.4160 C   0  0  0  0  0  0  0  0  0  0  0  0
   16.7030   12.5250    2.4000 N   0  0  0  0  0  0  0  0  0  0  0  0
   11.5330   14.3690    4.6170 N   0  0  0  0  0  0  0  0  0  0  0  0
   12.6750   14.4160    4.4180 C   0  0  0  0  0  0  0  0  0  0  0  0
   18.2730   14.5550    3.5580 N   0  0  0  0  0  0  0  0  0  0  0  0
   19.1640   15.6200    3.8390 C   0  0  0  0  0  0  0  0  0  0  0  0
   19.2510   16.6750    2.9290 C   0  0  0  0  0  0  0  0  0  0  0  0
   20.1780   17.7030    3.1160 C   0  0  0  0  0  0  0  0  0  0  0  0
   21.0620   17.6810    4.2030 C   0  0  0  0  0  0  0  0  0  0  0  0
   21.0180   16.5990    5.1020 C   0  0  0  0  0  0  0  0  0  0  0  0
   20.0780   15.5730    4.8990 C   0  0  0  0  0  0  0  0  0  0  0  0
   21.9630   16.5080    6.2700 C   0  0  0  0  0  0  0  0  0  0  0  0
   22.0490   18.8030    4.3730 C   0  0  0  0  0  0  0  0  0  0  0  0
   14.3450   16.3417    5.2497 H   0  0  0  0  0  0  0  0  0  0  0  0
   16.8051   16.4233    4.8649 H   0  0  0  0  0  0  0  0  0  0  0  0
   14.1200   12.6368    3.0318 H   0  0  0  0  0  0  0  0  0  0  0  0
   16.1303   11.8014    1.9425 H   0  0  0  0  0  0  0  0  0  0  0  0
   17.7293   12.4987    2.3165 H   0  0  0  0  0  0  0  0  0  0  0  0
   18.6840   13.6990    3.1589 H   0  0  0  0  0  0  0  0  0  0  0  0
   18.5826   16.6970    2.0556 H   0  0  0  0  0  0  0  0  0  0  0  0
   20.2145   18.5391    2.4021 H   0  0  0  0  0  0  0  0  0  0  0  0
   20.0602   14.7153    5.5875 H   0  0  0  0  0  0  0  0  0  0  0  0
   21.3921   16.5630    7.2087 H   0  0  0  0  0  0  0  0  0  0  0  0
   22.5077   15.5533    6.2275 H   0  0  0  0  0  0  0  0  0  0  0  0
   22.6798   17.3413    6.2275 H   0  0  0  0  0  0  0  0  0  0  0  0
   22.2122   18.9885    5.4449 H   0  0  0  0  0  0  0  0  0  0  0  0
   23.0027   18.5273    3.8992 H   0  0  0  0  0  0  0  0  0  0  0  0
   21.6540   19.7138    3.8992 H   0  0  0  0  0  0  0  0  0  0  0  0
  2  1  2  0
  3  2  1  0
  4  3  2  0
  5  4  1  0
  6  5  2  0
  6  1  1  0
  7  5  1  0
  9  8  3  0
  9  1  1  0
 10  4  1  0
 11 10  1  0
 12 11  2  0
 13 12  1  0
 14 13  2  0
 15 14  1  0
 16 11  1  0
 16 15  2  0
 17 15  1  0
 18 14  1  0
  2 19  1  0
  3 20  1  0
  6 21  1  0
  7 22  1  0
  7 23  1  0
 10 24  1  0
 12 25  1  0
 13 26  1  0
 16 27  1  0
 17 28  1  0
 17 29  1  0
 17 30  1  0
 18 31  1  0
 18 32  1  0
 18 33  1  0
M  END
$$$$
=
     RDKit          3D

 45 47  0  0  0  0  0  0  0  0999 V2000
   26.1780   25.8180   14.3910 C   0  0  1  0  0  0  0  0  0  0  0  0
   26.4950   27.3000   14.1740 C   0  0  2  0  0  0  0  0  0  0  0  0
   26.6190   26.3190   13.0380 C   0  0  1  0  0  0  0  0  0  0  0  0
   27.6040   27.9690   14.9540 C   0  0  0  0  0  0  0  0  0  0  0  0
   27.7240   27.7570   16.3430 C   0  0  0  0  0  0  0  0  0  0  0  0
   28.7320   28.3650   17.0980 C   0  0  0  0  0  0  0  0  0  0  0  0
   29.6320   29.2260   16.4830 C   0  0  0  0  0  0  0  0  0  0  0  0
   29.5040   29.4980   15.1270 C   0  0  0  0  0  0  0  0  0  0  0  0
   28.4910   28.8900   14.3790 C   0  0  0  0  0  0  0  0  0  0  0  0
   27.0940   25.0610   15.3010 N   0  0  0  0  0  4  0  0  0  0  0  0
   28.2220   25.7650   12.4530 S   0  0  0  0  0  6  0  0  0  0  0  0
   29.0610   25.5980   13.6280 O   0  0  0  0  0  0  0  0  0  0  0  0
   28.5880   26.6230   11.3510 O   0  0  0  0  0  0  0  0  0  0  0  0
   27.8730   24.1550   11.7980 C   0  0  0  0  0  0  0  0  0  0  0  0
   28.9270   23.2570   11.6140 C   0  0  0  0  0  0  0  0  0  0  0  0
   28.6650   21.9940   11.0810 C   0  0  0  0  0  0  0  0  0  0  0  0
   27.3580   21.6270   10.7320 C   0  0  0  0  0  0  0  0  0  0  0  0
   26.3080   22.5290   10.9550 C   0  0  0  0  0  0  0  0  0  0  0  0
   26.5610   23.7930   11.4880 C   0  0  0  0  0  0  0  0  0  0  0  0
   27.0760   20.2500   10.2020 C   0  0  0  0  0  0  0  0  0  0  0  0
   24.7220   25.3890   14.5190 C   0  0  0  0  0  0  0  0  0  0  0  0
   23.4010   23.4320   14.5800 C   0  0  0  0  0  0  0  0  0  0  0  0
   24.7280   23.9560   14.5210 O   0  0  0  0  0  0  0  0  0  0  0  0
   25.9909   28.2744   14.2540 H   0  0  0  0  0  0  0  0  0  0  0  0
   26.2179   26.3109   12.0138 H   0  0  0  0  0  0  0  0  0  0  0  0
   27.0045   27.0948   16.8468 H   0  0  0  0  0  0  0  0  0  0  0  0
   28.8120   28.1619   18.1761 H   0  0  0  0  0  0  0  0  0  0  0  0
   30.4412   29.6896   17.0664 H   0  0  0  0  0  0  0  0  0  0  0  0
   30.2022   30.1944   14.6396 H   0  0  0  0  0  0  0  0  0  0  0  0
   28.3875   29.1406   13.3129 H   0  0  0  0  0  0  0  0  0  0  0  0
   26.8490   25.2635   16.2807 H   0  0  0  0  0  0  0  0  0  0  0  0
   26.9959   24.0510   15.1242 H   0  0  0  0  0  0  0  0  0  0  0  0
   28.0674   25.3476   15.1242 H   0  0  0  0  0  0  0  0  0  0  0  0
   29.9537   23.5425   11.8866 H   0  0  0  0  0  0  0  0  0  0  0  0
   29.4900   21.2815   10.9338 H   0  0  0  0  0  0  0  0  0  0  0  0
   25.2765   22.2376   10.7077 H   0  0  0  0  0  0  0  0  0  0  0  0
   25.7346   24.4977   11.6623 H   0  0  0  0  0  0  0  0  0  0  0  0
   26.9338   19.5554   11.0430 H   0  0  0  0  0  0  0  0  0  0  0  0
   26.1640   20.2733    9.5874 H   0  0  0  0  0  0  0  0  0  0  0  0
   27.9238   19.9129    9.5874 H   0  0  0  0  0  0  0  0  0  0  0  0
   24.2929   25.7702   15.4574 H   0  0  0  0  0  0  0  0  0  0  0  0
   24.1121   25.7869   13.6946 H   0  0  0  0  0  0  0  0  0  0  0  0
   23.1001   23.3132   15.6314 H   0  0  0  0  0  0  0  0  0  0  0  0
   22.7105   24.1250   14.0770 H   0  0  0  0  0  0  0  0  0  0  0  0
   23.3702   22.4542   14.0770 H   0  0  0  0  0  0  0  0  0  0  0  0
  2  1  1  0
  3  1  1  0
  3  2  1  0
  4  2  1  0
  5  4  2  0
  6  5  1  0
  7  6  2  0
  8  7  1  0
  9  8  2  0
  9  4  1  0
 10  1  1  0
 11  3  1  0
 12 11  2  0
 13 11  2  0
 14 11  1  0
 15 14  2  0
 16 15  1  0
 17 16  2  0
 18 17  1  0
 19 18  2  0
 19 14  1  0
 20 17  1  0
  1 21  1  6
 23 22  1  0
 23 21  1  0
  2 24  1  6
  3 25  1  6
  5 26  1  0
  6 27  1  0
  7 28  1  0
  8 29  1  0
  9 30  1  0
 10 31  1  0
 10 32  1  0
 10 33  1  0
 15 34  1  0
 16 35  1  0
 18 36  1  0
 19 37  1  0
 20 38  1  0
 20 39  1  0
 20 40  1  0
 21 41  1  0
 21 42  1  0
 22 43  1  0
 22 44  1  0
 22 45  1  0
M  CHG  1  10   1
M  END
$$$$
=
     RDKit          3D

 28 28  0  0  0  0  0  0  0  0999 V2000
   20.1300   16.0050    5.1850 C   0  0  0  0  0  0  0  0  0  0  0  0
   21.4530   16.1950    5.6180 C   0  0  0  0  0  0  0  0  0  0  0  0
   21.9350   17.4780    5.8790 C   0  0  0  0  0  0  0  0  0  0  0  0
   21.1010   18.5830    5.7240 C   0  0  0  0  0  0  0  0  0  0  0  0
   19.7840   18.4120    5.2970 C   0  0  0  0  0  0  0  0  0  0  0  0
   19.3090   17.1320    5.0110 C   0  0  0  0  0  0  0  0  0  0  0  0
   19.6130   14.6160    4.9370 C   0  0  0  0  0  0  0  0  0  0  0  0
   18.0870   13.4420    3.3160 C   0  0  0  0  0  0  0  0  0  0  0  0
   19.2330   14.3700    3.5110 N   0  0  0  0  0  4  0  0  0  0  0  0
   18.0150   16.9130    4.6230 O   0  0  0  0  0  0  0  0  0  0  0  0
   17.0630   16.8760    5.7050 C   0  0  0  0  0  0  0  0  0  0  0  0
   16.0800   15.7170    5.6040 C   0  0  0  0  0  0  0  0  0  0  0  0
   15.6890   15.3520    6.8570 F   0  0  0  0  0  0  0  0  0  0  0  0
   14.9630   16.1170    4.9500 F   0  0  0  0  0  0  0  0  0  0  0  0
   22.1137   15.3258    5.7522 H   0  0  0  0  0  0  0  0  0  0  0  0
   22.9754   17.6173    6.2078 H   0  0  0  0  0  0  0  0  0  0  0  0
   21.4817   19.5924    5.9387 H   0  0  0  0  0  0  0  0  0  0  0  0
   19.1223   19.2837    5.1862 H   0  0  0  0  0  0  0  0  0  0  0  0
   20.3964   13.8968    5.2183 H   0  0  0  0  0  0  0  0  0  0  0  0
   18.7020   14.4955    5.5416 H   0  0  0  0  0  0  0  0  0  0  0  0
   17.6988   13.1277    4.2961 H   0  0  0  0  0  0  0  0  0  0  0  0
   17.2921   13.9540    2.7539 H   0  0  0  0  0  0  0  0  0  0  0  0
   18.4225   12.5580    2.7539 H   0  0  0  0  0  0  0  0  0  0  0  0
   20.0509   13.9737    3.0264 H   0  0  0  0  0  0  0  0  0  0  0  0
   18.9338   15.2799    3.1322 H   0  0  0  0  0  0  0  0  0  0  0  0
   17.6146   16.7843    6.6523 H   0  0  0  0  0  0  0  0  0  0  0  0
   16.4767   17.8054    5.6547 H   0  0  0  0  0  0  0  0  0  0  0  0
   16.5706   14.8872    5.0742 H   0  0  0  0  0  0  0  0  0  0  0  0
  2  1  2  0
  3  2  1  0
  4  3  2  0
  5  4  1  0
  6  1  1  0
  6  5  2  0
  7  1  1  0
  9  8  1  0
  9  7  1  0
 10  6  1  0
 11 10  1  0
 12 11  1  0
 13 12  1  0
 14 12  1  0
  2 15  1  0
  3 16  1  0
  4 17  1  0
  5 18  1  0
  7 19  1  0
  7 20  1  0
  8 21  1  0
  8 22  1  0
  8 23  1  0
  9 24  1  0
  9 25  1  0
 11 26  1  0
 11 27  1  0
 12 28  1  0
M  CHG  1   9   1
M  END
$$$$
=
     RDKit          3D

 26 27  0  0  0  0  0  0  0  0999 V2000
   19.4000   16.4720    5.0270 C   0  0  0  0  0  0  0  0  0  0  0  0
   19.7110   17.5650    4.2060 C   0  0  0  0  0  0  0  0  0  0  0  0
   21.0360   17.9470    4.0330 C   0  0  0  0  0  0  0  0  0  0  0  0
   22.0820   17.3300    4.6120 N   0  0  0  0  0  0  0  0  0  0  0  0
   21.7750   16.3040    5.4340 C   0  0  0  0  0  0  0  0  0  0  0  0
   20.4760   15.8810    5.7340 C   0  0  0  0  0  0  0  0  0  0  0  0
   15.7400   16.0530    5.1960 C   0  0  2  0  0  0  0  0  0  0  0  0
   16.1540   15.2700    3.9610 C   0  0  0  0  0  0  0  0  0  0  0  0
   17.6450   14.9910    4.1880 C   0  0  0  0  0  0  0  0  0  0  0  0
   18.0870   15.9980    5.1840 N   0  0  0  0  0  0  0  0  0  0  0  0
   16.9730   16.9320    5.4360 C   0  0  0  0  0  0  0  0  0  0  0  0
   15.5300   15.1590    6.2900 O   0  0  0  0  0  0  0  0  0  0  0  0
   20.2680   14.7820    6.6020 N   0  0  0  0  0  0  0  0  0  0  0  0
   18.9073   18.1195    3.6994 H   0  0  0  0  0  0  0  0  0  0  0  0
   21.2427   18.8087    3.3812 H   0  0  0  0  0  0  0  0  0  0  0  0
   22.6085   15.7602    5.9027 H   0  0  0  0  0  0  0  0  0  0  0  0
   14.8060   16.6235    5.0856 H   0  0  0  0  0  0  0  0  0  0  0  0
   15.5868   14.3307    3.8841 H   0  0  0  0  0  0  0  0  0  0  0  0
   15.9608   15.8165    3.0261 H   0  0  0  0  0  0  0  0  0  0  0  0
   17.7909   13.9732    4.5789 H   0  0  0  0  0  0  0  0  0  0  0  0
   18.2210   15.0598    3.2534 H   0  0  0  0  0  0  0  0  0  0  0  0
   16.9991   17.7796    4.7354 H   0  0  0  0  0  0  0  0  0  0  0  0
   16.9995   17.3849    6.4381 H   0  0  0  0  0  0  0  0  0  0  0  0
   15.6450   15.6484    7.1429 H   0  0  0  0  0  0  0  0  0  0  0  0
   19.3102   14.4728    6.8210 H   0  0  0  0  0  0  0  0  0  0  0  0
   21.0745   14.2917    7.0144 H   0  0  0  0  0  0  0  0  0  0  0  0
  2  1  2  0
  3  2  1  0
  4  3  2  0
  5  4  1  0
  6  5  2  0
  6  1  1  0
  8  7  1  0
  9  8  1  0
 10  9  1  0
 10  1  1  0
 11  7  1  0
 11 10  1  0
 12  7  1  0
 13  6  1  0
  2 14  1  0
  3 15  1  0
  5 16  1  0
  7 17  1  6
  8 18  1  0
  8 19  1  0
  9 20  1  0
  9 21  1  0
 11 22  1  0
 11 23  1  0
 12 24  1  0
 13 25  1  0
 13 26  1  0
M  END
$$$$
=
     RDKit          3D

 36 36  0  0  0  0  0  0  0  0999 V2000
   15.7080   13.9430    3.1740 C   0  0  1  0  0  0  0  0  0  0  0  0
   14.8410   14.4410    4.3390 C   0  0  0  0  0  0  0  0  0  0  0  0
   15.1530   15.8990    4.6820 C   0  0  0  0  0  0  0  0  0  0  0  0
   16.6300   16.1100    4.9920 C   0  0  0  0  0  0  0  0  0  0  0  0
   17.4540   15.6030    3.8290 N   0  0  2  0  0  4  0  0  0  0  0  0
   17.2020   14.1530    3.4790 C   0  0  0  0  0  0  0  0  0  0  0  0
   15.3740   12.5030    2.7260 C   0  0  0  0  0  0  0  0  0  0  0  0
   13.9420   12.1330    2.8370 N   0  0  0  0  0  4  0  0  0  0  0  0
   18.9250   16.0100    3.8870 C   0  0  0  0  0  0  0  0  0  0  0  0
   19.2400   17.4690    3.5140 C   0  0  0  0  0  0  0  0  0  0  0  0
   19.6410   17.5170    2.0340 C   0  0  0  0  0  0  0  0  0  0  0  0
   20.3450   18.1080    4.3500 C   0  0  0  0  0  0  0  0  0  0  0  0
   15.4592   14.5615    2.2990 H   0  0  0  0  0  0  0  0  0  0  0  0
   13.7809   14.3583    4.0573 H   0  0  0  0  0  0  0  0  0  0  0  0
   15.0589   13.8227    5.2223 H   0  0  0  0  0  0  0  0  0  0  0  0
   14.8760   16.5321    3.8262 H   0  0  0  0  0  0  0  0  0  0  0  0
   14.5762   16.1674    5.5793 H   0  0  0  0  0  0  0  0  0  0  0  0
   16.8257   17.1818    5.1433 H   0  0  0  0  0  0  0  0  0  0  0  0
   16.9002   15.5614    5.9064 H   0  0  0  0  0  0  0  0  0  0  0  0
   17.0949   16.1119    3.0086 H   0  0  0  0  0  0  0  0  0  0  0  0
   17.4947   13.5163    4.3269 H   0  0  0  0  0  0  0  0  0  0  0  0
   17.7952   13.8847    2.5923 H   0  0  0  0  0  0  0  0  0  0  0  0
   15.6750   12.3936    1.6737 H   0  0  0  0  0  0  0  0  0  0  0  0
   15.9204   11.8328    3.4059 H   0  0  0  0  0  0  0  0  0  0  0  0
   13.6809   12.0655    3.8311 H   0  0  0  0  0  0  0  0  0  0  0  0
   13.3649   12.8525    2.3785 H   0  0  0  0  0  0  0  0  0  0  0  0
   13.7857   11.2240    2.3785 H   0  0  0  0  0  0  0  0  0  0  0  0
   19.2797   15.8420    4.9146 H   0  0  0  0  0  0  0  0  0  0  0  0
   19.4312   15.3956    3.1278 H   0  0  0  0  0  0  0  0  0  0  0  0
   18.3287   18.0505    3.7175 H   0  0  0  0  0  0  0  0  0  0  0  0
   20.7303   17.6474    1.9533 H   0  0  0  0  0  0  0  0  0  0  0  0
   19.3469   16.5772    1.5438 H   0  0  0  0  0  0  0  0  0  0  0  0
   19.1334   18.3608    1.5438 H   0  0  0  0  0  0  0  0  0  0  0  0
   20.1186   17.9771    5.4185 H   0  0  0  0  0  0  0  0  0  0  0  0
   21.3061   17.6263    4.1171 H   0  0  0  0  0  0  0  0  0  0  0  0
   20.4069   19.1813    4.1171 H   0  0  0  0  0  0  0  0  0  0  0  0
  2  1  1  0
  3  2  1  0
  4  3  1  0
  5  4  1  0
  6  1  1  0
  6  5  1  0
  7  1  1  0
  8  7  1  0
  9  5  1  0
 10  9  1  0
 11 10  1  0
 12 10  1  0
  1 13  1  6
  2 14  1  0
  2 15  1  0
  3 16  1  0
  3 17  1  0
  4 18  1  0
  4 19  1  0
  5 20  1  6
  6 21  1  0
  6 22  1  0
  7 23  1  0
  7 24  1  0
  8 25  1  0
  8 26  1  0
  8 27  1  0
  9 28  1  0
  9 29  1  0
 10 30  1  0
 11 31  1  0
 11 32  1  0
 11 33  1  0
 12 34  1  0
 12 35  1  0
 12 36  1  0
M  CHG  2   5   1   8   1
M  END
$$$$
=
     RDKit          3D

 33 33  0  0  0  0  0  0  0  0999 V2000
   16.7230   14.9040    4.1560 C   0  0  2  0  0  0  0  0  0  0  0  0
   15.9550   15.6220    5.2730 C   0  0  0  0  0  0  0  0  0  0  0  0
   16.8080   16.1970    6.4050 C   0  0  0  0  0  0  0  0  0  0  0  0
   17.5510   17.4660    5.9990 C   0  0  0  0  0  0  0  0  0  0  0  0
   18.8740   17.2450    5.2700 C   0  0  0  0  0  0  0  0  0  0  0  0
   18.9850   16.0160    4.3870 C   0  0  0  0  0  0  0  0  0  0  0  0
   17.7610   15.8110    3.5580 N   0  0  0  0  0  4  0  0  0  0  0  0
   15.7440   14.4480    3.0540 C   0  0  0  0  0  0  0  0  0  0  0  0
   14.7330   12.1750    3.4000 C   0  0  0  0  0  0  0  0  0  0  0  0
   15.8050   12.9640    2.6400 C   0  0  0  0  0  0  0  0  0  0  0  0
   17.1780   12.3390    2.8900 C   0  0  0  0  0  0  0  0  0  0  0  0
   17.2252   14.0268    4.5900 H   0  0  0  0  0  0  0  0  0  0  0  0
   15.3949   16.4520    4.8176 H   0  0  0  0  0  0  0  0  0  0  0  0
   15.3190   14.8548    5.7387 H   0  0  0  0  0  0  0  0  0  0  0  0
   16.1513   16.4311    7.2559 H   0  0  0  0  0  0  0  0  0  0  0  0
   17.5626   15.4411    6.6680 H   0  0  0  0  0  0  0  0  0  0  0  0
   16.8923   18.0482    5.3378 H   0  0  0  0  0  0  0  0  0  0  0  0
   17.8041   17.9823    6.9367 H   0  0  0  0  0  0  0  0  0  0  0  0
   19.0525   18.1253    4.6350 H   0  0  0  0  0  0  0  0  0  0  0  0
   19.6136   17.0867    6.0687 H   0  0  0  0  0  0  0  0  0  0  0  0
   19.8506   16.1357    3.7188 H   0  0  0  0  0  0  0  0  0  0  0  0
   19.1045   15.1385    5.0394 H   0  0  0  0  0  0  0  0  0  0  0  0
   17.3261   16.7313    3.4002 H   0  0  0  0  0  0  0  0  0  0  0  0
   18.0775   15.3494    2.6933 H   0  0  0  0  0  0  0  0  0  0  0  0
   14.7235   14.6524    3.4102 H   0  0  0  0  0  0  0  0  0  0  0  0
   16.0401   15.0097    2.1557 H   0  0  0  0  0  0  0  0  0  0  0  0
   14.8907   12.2911    4.4824 H   0  0  0  0  0  0  0  0  0  0  0  0
   13.7371   12.5572    3.1315 H   0  0  0  0  0  0  0  0  0  0  0  0
   14.8019   11.1105    3.1315 H   0  0  0  0  0  0  0  0  0  0  0  0
   15.6194   12.9185    1.5567 H   0  0  0  0  0  0  0  0  0  0  0  0
   17.3529   12.2594    3.9731 H   0  0  0  0  0  0  0  0  0  0  0  0
   17.2123   11.3366    2.4384 H   0  0  0  0  0  0  0  0  0  0  0  0
   17.9565   12.9714    2.4384 H   0  0  0  0  0  0  0  0  0  0  0  0
  2  1  1  0
  3  2  1  0
  4  3  1  0
  5  4  1  0
  6  5  1  0
  7  6  1  0
  7  1  1  0
  8  1  1  0
 10  9  1  0
 10  8  1  0
 11 10  1  0
  1 12  1  1
  2 13  1  0
  2 14  1  0
  3 15  1  0
  3 16  1  0
  4 17  1  0
  4 18  1  0
  5 19  1  0
  5 20  1  0
  6 21  1  0
  6 22  1  0
  7 23  1  0
  7 24  1  0
  8 25  1  0
  8 26  1  0
  9 27  1  0
  9 28  1  0
  9 29  1  0
 10 30  1  0
 11 31  1  0
 11 32  1  0
 11 33  1  0
M  CHG  1   7   1
M  END
$$$$
=
     RDKit          3D

 41 41  0  0  0  0  0  0  0  0999 V2000
   16.9240   15.9590    5.5470 C   0  0  1  0  0  0  0  0  0  0  0  0
   16.6010   17.2880    5.7390 F   0  0  0  0  0  0  0  0  0  0  0  0
   17.2520   15.7830    4.0550 C   0  0  0  0  0  0  0  0  0  0  0  0
   18.6010   16.3530    3.6030 C   0  0  0  0  0  0  0  0  0  0  0  0
   19.7540   15.3730    3.8240 C   0  0  0  0  0  0  0  0  0  0  0  0
   20.0630   15.2070    5.2380 N   0  0  0  0  0  0  0  0  0  0  0  0
   19.0580   14.5990    6.0910 C   0  0  0  0  0  0  0  0  0  0  0  0
   18.0420   15.6400    6.5540 C   0  0  0  0  0  0  0  0  0  0  0  0
   21.1300   15.8600    5.8530 C   0  0  0  0  0  0  0  0  0  0  0  0
   21.2840   15.8700    7.0670 O   0  0  0  0  0  0  0  0  0  0  0  0
   15.6210   15.2010    5.8830 C   0  0  0  0  0  0  0  0  0  0  0  0
   14.7520   15.1350    4.6660 N   0  0  0  0  0  4  0  0  0  0  0  0
   21.9380   16.4870    4.9640 O   0  0  0  0  0  0  0  0  0  0  0  0
   22.0120   17.9350    4.9060 C   0  0  0  0  0  0  0  0  0  0  0  0
   21.8510   18.2720    3.4150 C   0  0  0  0  0  0  0  0  0  0  0  0
   20.8600   18.5820    5.6810 C   0  0  0  0  0  0  0  0  0  0  0  0
   23.3790   18.4430    5.3780 C   0  0  0  0  0  0  0  0  0  0  0  0
   17.2477   14.7058    3.8321 H   0  0  0  0  0  0  0  0  0  0  0  0
   16.4858   16.3526    3.5087 H   0  0  0  0  0  0  0  0  0  0  0  0
   18.5417   16.5920    2.5309 H   0  0  0  0  0  0  0  0  0  0  0  0
   18.8042   17.2500    4.2065 H   0  0  0  0  0  0  0  0  0  0  0  0
   19.4752   14.3954    3.4039 H   0  0  0  0  0  0  0  0  0  0  0  0
   20.6466   15.7791    3.3256 H   0  0  0  0  0  0  0  0  0  0  0  0
   18.5364   13.8104    5.5289 H   0  0  0  0  0  0  0  0  0  0  0  0
   19.5552   14.1725    6.9747 H   0  0  0  0  0  0  0  0  0  0  0  0
   17.5725   15.2698    7.4773 H   0  0  0  0  0  0  0  0  0  0  0  0
   18.6048   16.5752    6.6908 H   0  0  0  0  0  0  0  0  0  0  0  0
   15.8656   14.1810    6.2142 H   0  0  0  0  0  0  0  0  0  0  0  0
   15.0866   15.7300    6.6859 H   0  0  0  0  0  0  0  0  0  0  0  0
   13.7654   15.0601    4.9523 H   0  0  0  0  0  0  0  0  0  0  0  0
   14.8826   15.9883    4.1042 H   0  0  0  0  0  0  0  0  0  0  0  0
   15.0100   14.3112    4.1042 H   0  0  0  0  0  0  0  0  0  0  0  0
   21.3789   19.2601    3.3113 H   0  0  0  0  0  0  0  0  0  0  0  0
   22.8398   18.2857    2.9333 H   0  0  0  0  0  0  0  0  0  0  0  0
   21.2190   17.5114    2.9333 H   0  0  0  0  0  0  0  0  0  0  0  0
   21.0417   18.4799    6.7611 H   0  0  0  0  0  0  0  0  0  0  0  0
   20.7953   19.6484    5.4192 H   0  0  0  0  0  0  0  0  0  0  0  0
   19.9157   18.0823    5.4192 H   0  0  0  0  0  0  0  0  0  0  0  0
   23.4066   18.4533    6.4776 H   0  0  0  0  0  0  0  0  0  0  0  0
   24.1685   17.7782    4.9976 H   0  0  0  0  0  0  0  0  0  0  0  0
   23.5428   19.4620    4.9976 H   0  0  0  0  0  0  0  0  0  0  0  0
  1  2  1  6
  3  1  1  0
  4  3  1  0
  5  4  1  0
  6  5  1  0
  7  6  1  0
  8  7  1  0
  8  1  1  0
  9  6  1  0
 10  9  2  0
 11  1  1  0
 12 11  1  0
 13  9  1  0
 14 13  1  0
 15 14  1  0
 16 14  1  0
 17 14  1  0
  3 18  1  0
  3 19  1  0
  4 20  1  0
  4 21  1  0
  5 22  1  0
  5 23  1  0
  7 24  1  0
  7 25  1  0
  8 26  1  0
  8 27  1  0
 11 28  1  0
 11 29  1  0
 12 30  1  0
 12 31  1  0
 12 32  1  0
 15 33  1  0
 15 34  1  0
 15 35  1  0
 16 36  1  0
 16 37  1  0
 16 38  1  0
 17 39  1  0
 17 40  1  0
 17 41  1  0
M  CHG  1  12   1
M  END
$$$$
=
     RDKit          3D

 36 36  0  0  0  0  0  0  0  0999 V2000
   19.6540   15.2380    3.5530 N   0  0  0  0  0  4  0  0  0  0  0  0
   19.0910   16.5840    3.0270 C   0  0  0  0  0  0  0  0  0  0  0  0
   20.1710   17.6940    3.0210 C   0  0  0  0  0  0  0  0  0  0  0  0
   20.7190   17.9670    4.4240 N   0  0  0  0  0  4  0  0  0  0  0  0
   20.5220   16.8140    5.4080 C   0  0  0  0  0  0  0  0  0  0  0  0
   20.6390   15.4260    4.7290 C   0  0  0  0  0  0  0  0  0  0  0  0
   22.1560   18.5000    4.4170 C   0  0  0  0  0  0  0  0  0  0  0  0
   22.8670   18.1350    5.7080 C   0  0  0  0  0  0  0  0  0  0  0  0
   18.5210   14.2330    3.8150 C   0  0  0  0  0  0  0  0  0  0  0  0
   17.1480   14.9280    3.9140 C   0  0  0  0  0  0  0  0  0  0  0  0
   16.0480   14.0910    3.2370 C   0  0  0  0  0  0  0  0  0  0  0  0
   16.5370   12.7290    2.8980 N   0  0  0  0  0  4  0  0  0  0  0  0
   20.2331   14.8180    2.8120 H   0  0  0  0  0  0  0  0  0  0  0  0
   18.7227   16.4395    2.0006 H   0  0  0  0  0  0  0  0  0  0  0  0
   18.2780   16.9006    3.6969 H   0  0  0  0  0  0  0  0  0  0  0  0
   21.0004   17.3793    2.3706 H   0  0  0  0  0  0  0  0  0  0  0  0
   19.7055   18.6196    2.6515 H   0  0  0  0  0  0  0  0  0  0  0  0
   20.1305   18.7308    4.7862 H   0  0  0  0  0  0  0  0  0  0  0  0
   21.2874   16.8872    6.1946 H   0  0  0  0  0  0  0  0  0  0  0  0
   19.5063   16.8984    5.8218 H   0  0  0  0  0  0  0  0  0  0  0  0
   20.4363   14.6503    5.4821 H   0  0  0  0  0  0  0  0  0  0  0  0
   21.6565   15.3479    4.3185 H   0  0  0  0  0  0  0  0  0  0  0  0
   22.7003   18.0611    3.5678 H   0  0  0  0  0  0  0  0  0  0  0  0
   22.1276   19.5958    4.3250 H   0  0  0  0  0  0  0  0  0  0  0  0
   22.2542   18.4496    6.5656 H   0  0  0  0  0  0  0  0  0  0  0  0
   23.0208   17.0465    5.7468 H   0  0  0  0  0  0  0  0  0  0  0  0
   23.8411   18.6445    5.7468 H   0  0  0  0  0  0  0  0  0  0  0  0
   18.4929   13.5057    2.9902 H   0  0  0  0  0  0  0  0  0  0  0  0
   18.7216   13.7356    4.7754 H   0  0  0  0  0  0  0  0  0  0  0  0
   16.8917   15.0659    4.9748 H   0  0  0  0  0  0  0  0  0  0  0  0
   17.2120   15.8985    3.4001 H   0  0  0  0  0  0  0  0  0  0  0  0
   15.1915   14.0040    3.9217 H   0  0  0  0  0  0  0  0  0  0  0  0
   15.7520   14.5954    2.3053 H   0  0  0  0  0  0  0  0  0  0  0  0
   16.7248   12.2059    3.7652 H   0  0  0  0  0  0  0  0  0  0  0  0
   15.8210   12.2344    2.3469 H   0  0  0  0  0  0  0  0  0  0  0  0
   17.4041   12.8028    2.3469 H   0  0  0  0  0  0  0  0  0  0  0  0
  2  1  1  0
  3  2  1  0
  4  3  1  0
  5  4  1  0
  6  1  1  0
  6  5  1  0
  7  4  1  0
  8  7  1  0
  9  1  1  0
 10  9  1  0
 11 10  1  0
 12 11  1  0
  1 13  1  0
  2 14  1  0
  2 15  1  0
  3 16  1  0
  3 17  1  0
  4 18  1  0
  5 19  1  0
  5 20  1  0
  6 21  1  0
  6 22  1  0
  7 23  1  0
  7 24  1  0
  8 25  1  0
  8 26  1  0
  8 27  1  0
  9 28  1  0
  9 29  1  0
 10 30  1  0
 10 31  1  0
 11 32  1  0
 11 33  1  0
 12 34  1  0
 12 35  1  0
 12 36  1  0
M  CHG  3   1   1   4   1  12   1
M  END
$$$$
=
     RDKit          3D

 38 40  0  0  0  0  0  0  0  0999 V2000
   19.5190   16.2090    4.1860 C   0  0  2  0  0  0  0  0  0  0  0  0
   19.4910   16.1790    2.6180 C   0  0  0  0  0  0  0  0  0  0  0  0
   19.5140   17.5760    2.0040 C   0  0  0  0  0  0  0  0  0  0  0  0
   20.8050   18.3130    2.3550 C   0  0  0  0  0  0  0  0  0  0  0  0
   21.3380   17.9700    3.7480 C   0  0  0  0  0  0  0  0  0  0  0  0
   20.2010   17.5360    4.6920 C   0  0  2  0  0  0  0  0  0  0  0  0
   20.6930   17.4640    6.1530 C   0  0  0  0  0  0  0  0  0  0  0  0
   21.5180   16.2210    6.4520 C   0  0  0  0  0  0  0  0  0  0  0  0
   20.7750   14.9660    6.0440 C   0  0  0  0  0  0  0  0  0  0  0  0
   20.4480   15.0570    4.5930 N   0  0  0  0  0  4  0  0  0  0  0  0
   15.4740   15.3850    5.6470 C   0  0  0  0  0  0  0  0  0  0  0  0
   16.4010   15.9860    6.4880 C   0  0  0  0  0  0  0  0  0  0  0  0
   17.6950   16.2640    6.0320 C   0  0  0  0  0  0  0  0  0  0  0  0
   18.0980   15.9400    4.7240 C   0  0  0  0  0  0  0  0  0  0  0  0
   17.1240   15.3440    3.8880 C   0  0  0  0  0  0  0  0  0  0  0  0
   15.8330   15.0680    4.3440 C   0  0  0  0  0  0  0  0  0  0  0  0
   20.3699   15.6225    2.2605 H   0  0  0  0  0  0  0  0  0  0  0  0
   18.5521   15.6953    2.3106 H   0  0  0  0  0  0  0  0  0  0  0  0
   19.4370   17.4884    0.9102 H   0  0  0  0  0  0  0  0  0  0  0  0
   18.6658   18.1479    2.4082 H   0  0  0  0  0  0  0  0  0  0  0  0
   21.5718   18.0471    1.6125 H   0  0  0  0  0  0  0  0  0  0  0  0
   20.5778   19.3893    2.3489 H   0  0  0  0  0  0  0  0  0  0  0  0
   22.0646   17.1487    3.6612 H   0  0  0  0  0  0  0  0  0  0  0  0
   21.8138   18.8684    4.1682 H   0  0  0  0  0  0  0  0  0  0  0  0
   19.4126   18.3030    4.6761 H   0  0  0  0  0  0  0  0  0  0  0  0
   21.3116   18.3505    6.3567 H   0  0  0  0  0  0  0  0  0  0  0  0
   19.8005   17.4236    6.7947 H   0  0  0  0  0  0  0  0  0  0  0  0
   22.4652   16.2754    5.8954 H   0  0  0  0  0  0  0  0  0  0  0  0
   21.7092   16.1790    7.5344 H   0  0  0  0  0  0  0  0  0  0  0  0
   21.4078   14.0849    6.2266 H   0  0  0  0  0  0  0  0  0  0  0  0
   19.8504   14.8690    6.6320 H   0  0  0  0  0  0  0  0  0  0  0  0
   19.9961   14.1741    4.3154 H   0  0  0  0  0  0  0  0  0  0  0  0
   21.3429   15.2390    4.1166 H   0  0  0  0  0  0  0  0  0  0  0  0
   14.4605   15.1612    6.0113 H   0  0  0  0  0  0  0  0  0  0  0  0
   16.1170   16.2452    7.5186 H   0  0  0  0  0  0  0  0  0  0  0  0
   18.4126   16.7466    6.7118 H   0  0  0  0  0  0  0  0  0  0  0  0
   17.3909   15.0913    2.8512 H   0  0  0  0  0  0  0  0  0  0  0  0
   15.1005   14.5993    3.6704 H   0  0  0  0  0  0  0  0  0  0  0  0
  2  1  1  0
  3  2  1  0
  4  3  1  0
  5  4  1  0
  6  1  1  0
  6  5  1  0
  7  6  1  0
  8  7  1  0
  9  8  1  0
 10  1  1  0
 10  9  1  0
 12 11  2  0
 13 12  1  0
  1 14  1  1
 14 13  2  0
 15 14  1  0
 16 11  1  0
 16 15  2  0
  2 17  1  0
  2 18  1  0
  3 19  1  0
  3 20  1  0
  4 21  1  0
  4 22  1  0
  5 23  1  0
  5 24  1  0
  6 25  1  1
  7 26  1  0
  7 27  1  0
  8 28  1  0
  8 29  1  0
  9 30  1  0
  9 31  1  0
 10 32  1  0
 10 33  1  0
 11 34  1  0
 12 35  1  0
 13 36  1  0
 15 37  1  0
 16 38  1  0
M  CHG  1  10   1
M  END
$$$$
=
     RDKit          3D

 35 36  0  0  0  0  0  0  0  0999 V2000
   16.3130   16.0590    5.8600 C   0  0  0  0  0  0  0  0  0  0  0  0
   16.0980   15.3180    6.8160 O   0  0  0  0  0  0  0  0  0  0  0  0
   15.9010   15.8500    4.5560 N   0  0  0  0  0  0  0  0  0  0  0  0
   15.1490   14.7690    4.0480 C   0  0  0  0  0  0  0  0  0  0  0  0
   13.7620   14.6440    4.1630 C   0  0  0  0  0  0  0  0  0  0  0  0
   13.0970   13.5170    3.6550 C   0  0  0  0  0  0  0  0  0  0  0  0
   13.8230   12.5600    2.9400 C   0  0  0  0  0  0  0  0  0  0  0  0
   15.2060   12.6730    2.8110 C   0  0  0  0  0  0  0  0  0  0  0  0
   15.8540   13.7680    3.3700 C   0  0  0  0  0  0  0  0  0  0  0  0
   17.1860   13.8710    3.2370 F   0  0  0  0  0  0  0  0  0  0  0  0
   11.6970   13.4640    3.6710 N   0  0  0  0  0  0  0  0  0  0  0  0
   17.0650   17.3700    6.0490 C   0  0  0  0  0  0  0  0  0  0  0  0
   21.2700   17.1030    5.0660 C   0  0  0  0  0  0  0  0  0  0  0  0
   20.6370   18.3460    5.1450 C   0  0  0  0  0  0  0  0  0  0  0  0
   19.2810   18.4390    5.4660 C   0  0  0  0  0  0  0  0  0  0  0  0
   18.5340   17.2810    5.7100 C   0  0  0  0  0  0  0  0  0  0  0  0
   19.1730   16.0360    5.6380 C   0  0  0  0  0  0  0  0  0  0  0  0
   20.5320   15.9480    5.3150 C   0  0  0  0  0  0  0  0  0  0  0  0
   23.2900   18.3540    5.0760 C   0  0  0  0  0  0  0  0  0  0  0  0
   22.5970   17.1580    4.7410 O   0  0  0  0  0  0  0  0  0  0  0  0
   16.1763   16.5704    3.8733 H   0  0  0  0  0  0  0  0  0  0  0  0
   13.1841   15.4386    4.6577 H   0  0  0  0  0  0  0  0  0  0  0  0
   13.2988   11.7116    2.4758 H   0  0  0  0  0  0  0  0  0  0  0  0
   15.7787   11.9036    2.2724 H   0  0  0  0  0  0  0  0  0  0  0  0
   11.2086   12.6372    3.2983 H   0  0  0  0  0  0  0  0  0  0  0  0
   11.1562   14.2518    4.0554 H   0  0  0  0  0  0  0  0  0  0  0  0
   16.6046   18.1310    5.4017 H   0  0  0  0  0  0  0  0  0  0  0  0
   16.9962   17.6294    7.1158 H   0  0  0  0  0  0  0  0  0  0  0  0
   21.2137   19.2626    4.9520 H   0  0  0  0  0  0  0  0  0  0  0  0
   18.7985   19.4257    5.5272 H   0  0  0  0  0  0  0  0  0  0  0  0
   18.6005   15.1181    5.8374 H   0  0  0  0  0  0  0  0  0  0  0  0
   21.0190   14.9634    5.2576 H   0  0  0  0  0  0  0  0  0  0  0  0
   23.3462   18.4510    6.1703 H   0  0  0  0  0  0  0  0  0  0  0  0
   24.3070   18.3177    4.6584 H   0  0  0  0  0  0  0  0  0  0  0  0
   22.7528   19.2183    4.6584 H   0  0  0  0  0  0  0  0  0  0  0  0
  2  1  2  0
  3  1  1  0
  4  3  1  0
  5  4  2  0
  6  5  1  0
  7  6  2  0
  8  7  1  0
  9  8  2  0
  9  4  1  0
 10  9  1  0
 11  6  1  0
 12  1  1  0
 14 13  2  0
 15 14  1  0
 16 15  2  0
 16 12  1  0
 17 16  1  0
 18 17  2  0
 18 13  1  0
 20 13  1  0
 20 19  1  0
  3 21  1  0
  5 22  1  0
  7 23  1  0
  8 24  1  0
 11 25  1  0
 11 26  1  0
 12 27  1  0
 12 28  1  0
 14 29  1  0
 15 30  1  0
 17 31  1  0
 18 32  1  0
 19 33  1  0
 19 34  1  0
 19 35  1  0
M  END
$$$$
=
     RDKit          3D

 30 30  0  0  0  0  0  0  0  0999 V2000
   11.0810   13.9310    3.7360 C   0  0  0  0  0  0  0  0  0  0  0  0
   12.0940   14.5610    4.4660 C   0  0  0  0  0  0  0  0  0  0  0  0
   13.4100   14.0880    4.4070 C   0  0  0  0  0  0  0  0  0  0  0  0
   13.7180   12.9720    3.6060 C   0  0  0  0  0  0  0  0  0  0  0  0
   12.7070   12.3500    2.8680 C   0  0  0  0  0  0  0  0  0  0  0  0
   11.3860   12.8270    2.9180 C   0  0  0  0  0  0  0  0  0  0  0  0
    8.9780   14.0010    4.8610 C   0  0  0  0  0  0  0  0  0  0  0  0
    9.7650   14.3330    3.7130 O   0  0  0  0  0  0  0  0  0  0  0  0
   14.4660   14.6470    5.0830 O   0  0  0  0  0  0  0  0  0  0  0  0
   15.0020   15.8720    4.6060 C   0  0  0  0  0  0  0  0  0  0  0  0
   15.0320   12.5820    3.6000 O   0  0  0  0  0  0  0  0  0  0  0  0
   15.7880   12.7710    2.4120 C   0  0  0  0  0  0  0  0  0  0  0  0
   10.3120   12.1360    2.1250 C   0  0  0  0  0  0  0  0  0  0  0  0
   10.7140   10.7730    1.7140 N   0  0  0  0  0  4  0  0  0  0  0  0
   11.8549   15.4342    5.0908 H   0  0  0  0  0  0  0  0  0  0  0  0
   12.9477   11.4783    2.2417 H   0  0  0  0  0  0  0  0  0  0  0  0
    9.5430   14.2393    5.7742 H   0  0  0  0  0  0  0  0  0  0  0  0
    8.0439   14.5817    4.8456 H   0  0  0  0  0  0  0  0  0  0  0  0
    8.7421   12.9267    4.8456 H   0  0  0  0  0  0  0  0  0  0  0  0
   15.2801   16.5076    5.4596 H   0  0  0  0  0  0  0  0  0  0  0  0
   15.8934   15.6687    3.9944 H   0  0  0  0  0  0  0  0  0  0  0  0
   14.2478   16.3888    3.9944 H   0  0  0  0  0  0  0  0  0  0  0  0
   16.8244   13.0301    2.6742 H   0  0  0  0  0  0  0  0  0  0  0  0
   15.7803   11.8433    1.8210 H   0  0  0  0  0  0  0  0  0  0  0  0
   15.3446   13.5859    1.8210 H   0  0  0  0  0  0  0  0  0  0  0  0
    9.4041   12.0671    2.7422 H   0  0  0  0  0  0  0  0  0  0  0  0
   10.1313   12.7252    1.2139 H   0  0  0  0  0  0  0  0  0  0  0  0
   10.8836   10.1979    2.5515 H   0  0  0  0  0  0  0  0  0  0  0  0
    9.9625   10.3481    1.1522 H   0  0  0  0  0  0  0  0  0  0  0  0
   11.5758   10.8240    1.1522 H   0  0  0  0  0  0  0  0  0  0  0  0
  2  1  2  0
  3  2  1  0
  4  3  2  0
  5  4  1  0
  6  5  2  0
  6  1  1  0
  8  7  1  0
  8  1  1  0
  9  3  1  0
 10  9  1  0
 11  4  1  0
 12 11  1  0
 13  6  1  0
 14 13  1  0
  2 15  1  0
  5 16  1  0
  7 17  1  0
  7 18  1  0
  7 19  1  0
 10 20  1  0
 10 21  1  0
 10 22  1  0
 12 23  1  0
 12 24  1  0
 12 25  1  0
 13 26  1  0
 13 27  1  0
 14 28  1  0
 14 29  1  0
 14 30  1  0
M  CHG  1  14   1
M  END
$$$$
=
     RDKit          3D

 35 36  0  0  0  0  0  0  0  0999 V2000
   21.6080   18.2480    5.2290 C   0  0  0  0  0  0  0  0  0  0  0  0
   21.8940   16.8990    5.8850 C   0  0  0  0  0  0  0  0  0  0  0  0
   20.7840   15.8760    5.6320 C   0  0  0  0  0  0  0  0  0  0  0  0
   19.5390   16.5810    5.1240 N   0  0  0  0  0  4  0  0  0  0  0  0
   19.8220   17.2070    3.7570 C   0  0  0  0  0  0  0  0  0  0  0  0
   21.1040   18.0440    3.8050 C   0  0  0  0  0  0  0  0  0  0  0  0
   18.2160   15.8570    5.1860 C   0  0  1  0  0  0  0  0  0  0  0  0
   17.0300   16.7610    5.4920 C   0  0  0  0  0  0  0  0  0  0  0  0
   15.8360   15.8630    5.1870 C   0  0  0  0  0  0  0  0  0  0  0  0
   16.2710   15.0460    3.9990 N   0  0  0  0  0  4  0  0  0  0  0  0
   17.7740   15.1660    3.8670 C   0  0  2  0  0  0  0  0  0  0  0  0
   18.3890   13.7960    3.6540 C   0  0  0  0  0  0  0  0  0  0  0  0
   20.5470   18.8630    5.9800 O   0  0  0  0  0  0  0  0  0  0  0  0
   22.5221   18.8596    5.2107 H   0  0  0  0  0  0  0  0  0  0  0  0
   22.8372   16.5031    5.4805 H   0  0  0  0  0  0  0  0  0  0  0  0
   21.9561   17.0624    6.9710 H   0  0  0  0  0  0  0  0  0  0  0  0
   21.1232   15.1478    4.8806 H   0  0  0  0  0  0  0  0  0  0  0  0
   20.5483   15.3566    6.5726 H   0  0  0  0  0  0  0  0  0  0  0  0
   19.3638   17.3102    5.8300 H   0  0  0  0  0  0  0  0  0  0  0  0
   19.9392   16.4079    3.0102 H   0  0  0  0  0  0  0  0  0  0  0  0
   18.9805   17.8607    3.4841 H   0  0  0  0  0  0  0  0  0  0  0  0
   21.8839   17.5303    3.2238 H   0  0  0  0  0  0  0  0  0  0  0  0
   20.8758   19.0341    3.3835 H   0  0  0  0  0  0  0  0  0  0  0  0
   18.4324   15.1302    5.9829 H   0  0  0  0  0  0  0  0  0  0  0  0
   17.0316   17.0740    6.5465 H   0  0  0  0  0  0  0  0  0  0  0  0
   17.0326   17.6955    4.9118 H   0  0  0  0  0  0  0  0  0  0  0  0
   15.6101   15.2122    6.0445 H   0  0  0  0  0  0  0  0  0  0  0  0
   14.9207   16.4389    4.9855 H   0  0  0  0  0  0  0  0  0  0  0  0
   16.0111   14.0594    4.1404 H   0  0  0  0  0  0  0  0  0  0  0  0
   15.8104   15.3886    3.1438 H   0  0  0  0  0  0  0  0  0  0  0  0
   18.1049   15.7532    2.9977 H   0  0  0  0  0  0  0  0  0  0  0  0
   18.5973   13.3319    4.6293 H   0  0  0  0  0  0  0  0  0  0  0  0
   17.6885   13.1634    3.0891 H   0  0  0  0  0  0  0  0  0  0  0  0
   19.3272   13.8991    3.0891 H   0  0  0  0  0  0  0  0  0  0  0  0
   20.7252   18.7597    6.9483 H   0  0  0  0  0  0  0  0  0  0  0  0
  2  1  1  0
  3  2  1  0
  4  3  1  0
  5  4  1  0
  6  5  1  0
  6  1  1  0
  7  4  1  0
  8  7  1  0
  9  8  1  0
 10  9  1  0
 11 10  1  0
 11  7  1  0
 12 11  1  0
 13  1  1  0
  1 14  1  0
  2 15  1  0
  2 16  1  0
  3 17  1  0
  3 18  1  0
  4 19  1  0
  5 20  1  0
  5 21  1  0
  6 22  1  0
  6 23  1  0
  7 24  1  1
  8 25  1  0
  8 26  1  0
  9 27  1  0
  9 28  1  0
 10 29  1  0
 10 30  1  0
 11 31  1  6
 12 32  1  0
 12 33  1  0
 12 34  1  0
 13 35  1  0
M  CHG  2   4   1  10   1
M  END
$$$$
=
     RDKit          3D

 34 35  0  0  0  0  0  0  0  0999 V2000
   17.0910   15.0300    3.5370 N   0  0  0  0  0  4  0  0  0  0  0  0
   18.2480   14.1630    3.8840 C   0  0  0  0  0  0  0  0  0  0  0  0
   20.0060   15.9870    3.9950 C   0  0  0  0  0  0  0  0  0  0  0  0
   20.9860   16.6880    4.7020 C   0  0  0  0  0  0  0  0  0  0  0  0
   21.2740   16.3490    6.0260 C   0  0  0  0  0  0  0  0  0  0  0  0
   20.5910   15.3090    6.6490 C   0  0  0  0  0  0  0  0  0  0  0  0
   19.6160   14.6000    5.9510 C   0  0  0  0  0  0  0  0  0  0  0  0
   19.3180   14.9250    4.6170 C   0  0  0  0  0  0  0  0  0  0  0  0
   19.7760   17.5810    2.2380 C   0  0  0  0  0  0  0  0  0  0  0  0
   19.6590   16.2290    2.6860 O   0  0  0  0  0  0  0  0  0  0  0  0
   16.0130   15.0900    4.5480 C   0  0  0  0  0  0  0  0  0  0  0  0
   14.7870   14.3770    4.0630 C   0  0  0  0  0  0  0  0  0  0  0  0
   13.5090   14.8230    4.4210 C   0  0  0  0  0  0  0  0  0  0  0  0
   12.4090   14.1030    3.9860 C   0  0  0  0  0  0  0  0  0  0  0  0
   12.5020   12.9830    3.2420 N   0  0  0  0  0  0  0  0  0  0  0  0
   13.7360   12.5660    2.8990 C   0  0  0  0  0  0  0  0  0  0  0  0
   14.8960   13.2180    3.2860 C   0  0  0  0  0  0  0  0  0  0  0  0
   17.4438   15.9868    3.3925 H   0  0  0  0  0  0  0  0  0  0  0  0
   16.6669   14.6118    2.6966 H   0  0  0  0  0  0  0  0  0  0  0  0
   17.8966   13.3393    4.5228 H   0  0  0  0  0  0  0  0  0  0  0  0
   18.6812   13.7807    2.9480 H   0  0  0  0  0  0  0  0  0  0  0  0
   21.5322   17.5091    4.2147 H   0  0  0  0  0  0  0  0  0  0  0  0
   22.0443   16.9067    6.5788 H   0  0  0  0  0  0  0  0  0  0  0  0
   20.8209   15.0468    7.6923 H   0  0  0  0  0  0  0  0  0  0  0  0
   19.0759   13.7804    6.4475 H   0  0  0  0  0  0  0  0  0  0  0  0
   19.8340   18.2518    3.1079 H   0  0  0  0  0  0  0  0  0  0  0  0
   20.6868   17.6885    1.6306 H   0  0  0  0  0  0  0  0  0  0  0  0
   18.8972   17.8434    1.6306 H   0  0  0  0  0  0  0  0  0  0  0  0
   16.3627   14.6149    5.4765 H   0  0  0  0  0  0  0  0  0  0  0  0
   15.7585   16.1447    4.7294 H   0  0  0  0  0  0  0  0  0  0  0  0
   13.3814   15.7266    5.0351 H   0  0  0  0  0  0  0  0  0  0  0  0
   11.4072   14.4639    4.2620 H   0  0  0  0  0  0  0  0  0  0  0  0
   13.8277   11.6614    2.2799 H   0  0  0  0  0  0  0  0  0  0  0  0
   15.8824   12.8325    2.9886 H   0  0  0  0  0  0  0  0  0  0  0  0
  2  1  1  0
  4  3  2  0
  5  4  1  0
  6  5  2  0
  7  6  1  0
  8  3  1  0
  8  2  1  0
  8  7  2  0
 10  3  1  0
 10  9  1  0
 11  1  1  0
 12 11  1  0
 13 12  2  0
 14 13  1  0
 15 14  2  0
 16 15  1  0
 17 16  2  0
 17 12  1  0
  1 18  1  0
  1 19  1  0
  2 20  1  0
  2 21  1  0
  4 22  1  0
  5 23  1  0
  6 24  1  0
  7 25  1  0
  9 26  1  0
  9 27  1  0
  9 28  1  0
 11 29  1  0
 11 30  1  0
 13 31  1  0
 14 32  1  0
 16 33  1  0
 17 34  1  0
M  CHG  1   1   1
M  END
$$$$
=
     RDKit          3D

 21 22  0  0  0  0  0  0  0  0999 V2000
   19.1820   13.6960    3.7740 F   0  0  0  0  0  0  0  0  0  0  0  0
   17.8780   13.5860    3.4840 C   0  0  0  0  0  0  0  0  0  0  0  0
   17.4470   12.4530    2.8100 C   0  0  0  0  0  0  0  0  0  0  0  0
   16.1610   12.2410    2.4690 N   0  0  0  0  0  0  0  0  0  0  0  0
   15.2790   13.1920    2.8140 C   0  0  0  0  0  0  0  0  0  0  0  0
   15.6300   14.3570    3.4910 C   0  0  0  0  0  0  0  0  0  0  0  0
   16.9720   14.5980    3.8570 C   0  0  0  0  0  0  0  0  0  0  0  0
   17.4040   15.8680    4.6050 C   0  0  0  0  0  0  0  0  0  0  0  0
   16.3990   16.6690    5.4030 C   0  0  0  0  0  0  0  0  0  0  0  0
   17.4670   15.8860    6.1160 C   0  0  0  0  0  0  0  0  0  0  0  0
   18.4440   16.6990    3.9620 N   0  0  0  0  0  4  0  0  0  0  0  0
   18.1920   11.6898    2.5406 H   0  0  0  0  0  0  0  0  0  0  0  0
   14.2222   13.0431    2.5476 H   0  0  0  0  0  0  0  0  0  0  0  0
   14.8550   15.0959    3.7428 H   0  0  0  0  0  0  0  0  0  0  0  0
   16.4388   17.7682    5.3914 H   0  0  0  0  0  0  0  0  0  0  0  0
   15.3008   16.7086    5.4528 H   0  0  0  0  0  0  0  0  0  0  0  0
   17.1987   14.9854    6.6879 H   0  0  0  0  0  0  0  0  0  0  0  0
   18.2422   16.1273    6.8582 H   0  0  0  0  0  0  0  0  0  0  0  0
   19.0155   17.1556    4.6871 H   0  0  0  0  0  0  0  0  0  0  0  0
   19.0455   16.1032    3.3755 H   0  0  0  0  0  0  0  0  0  0  0  0
   17.9956   17.4172    3.3755 H   0  0  0  0  0  0  0  0  0  0  0  0
  2  1  1  0
  3  2  2  0
  4  3  1  0
  5  4  2  0
  6  5  1  0
  7  6  2  0
  7  2  1  0
  8  7  1  0
  9  8  1  0
 10  8  1  0
 10  9  1  0
 11  8  1  0
  3 12  1  0
  5 13  1  0
  6 14  1  0
  9 15  1  0
  9 16  1  0
 10 17  1  0
 10 18  1  0
 11 19  1  0
 11 20  1  0
 11 21  1  0
M  CHG  1  11   1
M  END
$$$$
=
     RDKit          3D

 44 45  0  0  0  0  0  0  0  0999 V2000
   18.1270   15.2570    6.3720 N   0  0  0  0  0  4  0  0  0  0  0  0
   17.3550   17.5840    6.0360 C   0  0  0  0  0  0  0  0  0  0  0  0
   17.1680   16.1300    5.6180 C   0  0  2  0  0  0  0  0  0  0  0  0
   15.7430   15.6000    5.7950 C   0  0  0  0  0  0  0  0  0  0  0  0
   14.8390   15.9280    4.6020 C   0  0  0  0  0  0  0  0  0  0  0  0
   14.1530   14.6870    4.0930 C   0  0  0  0  0  0  0  0  0  0  0  0
   12.7710   14.5230    4.2520 C   0  0  0  0  0  0  0  0  0  0  0  0
   12.1330   13.3830    3.7580 C   0  0  0  0  0  0  0  0  0  0  0  0
   12.8700   12.4000    3.0990 C   0  0  0  0  0  0  0  0  0  0  0  0
   14.2440   12.5560    2.9340 C   0  0  0  0  0  0  0  0  0  0  0  0
   14.8850   13.6940    3.4270 C   0  0  0  0  0  0  0  0  0  0  0  0
   19.4470   14.8820    5.7350 C   0  0  0  0  0  0  0  0  0  0  0  0
   20.5580   15.6540    6.4780 C   0  0  2  0  0  0  0  0  0  0  0  0
   21.1830   16.7260    5.6240 C   0  0  0  0  0  0  0  0  0  0  0  0
   22.3850   17.3300    6.0230 C   0  0  0  0  0  0  0  0  0  0  0  0
   22.9620   18.3390    5.2500 C   0  0  0  0  0  0  0  0  0  0  0  0
   22.3460   18.7570    4.0740 C   0  0  0  0  0  0  0  0  0  0  0  0
   21.1520   18.1680    3.6660 C   0  0  0  0  0  0  0  0  0  0  0  0
   20.5720   17.1580    4.4350 C   0  0  0  0  0  0  0  0  0  0  0  0
   21.5350   14.6860    6.9050 O   0  0  0  0  0  0  0  0  0  0  0  0
   18.3463   15.7432    7.2532 H   0  0  0  0  0  0  0  0  0  0  0  0
   17.6296   14.3583    6.4480 H   0  0  0  0  0  0  0  0  0  0  0  0
   17.3637   17.6517    7.1339 H   0  0  0  0  0  0  0  0  0  0  0  0
   18.3089   17.9602    5.6379 H   0  0  0  0  0  0  0  0  0  0  0  0
   16.5273   18.1893    5.6379 H   0  0  0  0  0  0  0  0  0  0  0  0
   17.3726   16.0990    4.5376 H   0  0  0  0  0  0  0  0  0  0  0  0
   15.7860   14.5073    5.9143 H   0  0  0  0  0  0  0  0  0  0  0  0
   15.3139   16.0889    6.6820 H   0  0  0  0  0  0  0  0  0  0  0  0
   14.0780   16.6576    4.9161 H   0  0  0  0  0  0  0  0  0  0  0  0
   15.4587   16.3446    3.7943 H   0  0  0  0  0  0  0  0  0  0  0  0
   12.1846   15.2968    4.7691 H   0  0  0  0  0  0  0  0  0  0  0  0
   11.0477   13.2606    3.8890 H   0  0  0  0  0  0  0  0  0  0  0  0
   12.3669   11.5025    2.7099 H   0  0  0  0  0  0  0  0  0  0  0  0
   14.8257   11.7806    2.4139 H   0  0  0  0  0  0  0  0  0  0  0  0
   15.9703   13.8122    3.2922 H   0  0  0  0  0  0  0  0  0  0  0  0
   19.6150   13.7990    5.8293 H   0  0  0  0  0  0  0  0  0  0  0  0
   19.4470   15.1380    4.6652 H   0  0  0  0  0  0  0  0  0  0  0  0
   20.1289   16.1832    7.3416 H   0  0  0  0  0  0  0  0  0  0  0  0
   22.8765   17.0059    6.9522 H   0  0  0  0  0  0  0  0  0  0  0  0
   23.9055   18.8047    5.5709 H   0  0  0  0  0  0  0  0  0  0  0  0
   22.8024   19.5527    3.4668 H   0  0  0  0  0  0  0  0  0  0  0  0
   20.6654   18.4991    2.7367 H   0  0  0  0  0  0  0  0  0  0  0  0
   19.6288   16.6964    4.1074 H   0  0  0  0  0  0  0  0  0  0  0  0
   21.5623   14.6590    7.8943 H   0  0  0  0  0  0  0  0  0  0  0  0
  3  1  1  0
  3  2  1  0
  4  3  1  0
  5  4  1  0
  6  5  1  0
  7  6  2  0
  8  7  1  0
  9  8  2  0
 10  9  1  0
 11 10  2  0
 11  6  1  0
 12  1  1  0
 13 12  1  0
 14 13  1  0
 15 14  2  0
 16 15  1  0
 17 16  2  0
 18 17  1  0
 19 18  2  0
 19 14  1  0
 20 13  1  0
  1 21  1  0
  1 22  1  0
  2 23  1  0
  2 24  1  0
  2 25  1  0
  3 26  1  6
  4 27  1  0
  4 28  1  0
  5 29  1  0
  5 30  1  0
  7 31  1  0
  8 32  1  0
  9 33  1  0
 10 34  1  0
 11 35  1  0
 12 36  1  0
 12 37  1  0
 13 38  1  1
 15 39  1  0
 16 40  1  0
 17 41  1  0
 18 42  1  0
 19 43  1  0
 20 44  1  0
M  CHG  1   1   1
M  END
$$$$
=
     RDKit          3D

 36 38  0  0  0  0  0  0  0  0999 V2000
   13.5230   13.9250    3.6970 C   0  0  0  0  0  0  0  0  0  0  0  0
   13.9390   15.1210    4.2750 C   0  0  0  0  0  0  0  0  0  0  0  0
   15.3050   15.4380    4.3680 C   0  0  0  0  0  0  0  0  0  0  0  0
   16.2740   14.5390    3.8720 C   0  0  0  0  0  0  0  0  0  0  0  0
   15.8240   13.3510    3.2980 C   0  0  0  0  0  0  0  0  0  0  0  0
   14.4670   13.0210    3.1980 C   0  0  0  0  0  0  0  0  0  0  0  0
   16.9310   12.6460    2.8890 N   0  0  0  0  0  0  0  0  0  0  0  0
   18.0680   13.3470    3.1870 C   0  0  0  0  0  0  0  0  0  0  0  0
   17.7100   14.5320    3.8010 C   0  0  0  0  0  0  0  0  0  0  0  0
   18.6740   15.5760    4.2850 C   0  0  0  0  0  0  0  0  0  0  0  0
   19.2610   16.4090    3.1400 C   0  0  0  0  0  0  0  0  0  0  0  0
   20.1130   17.5610    3.6590 C   0  0  0  0  0  0  0  0  0  0  0  0
   20.8300   17.1910    4.9200 N   0  0  0  0  0  4  0  0  0  0  0  0
   21.0950   15.7350    5.0820 C   0  0  0  0  0  0  0  0  0  0  0  0
   19.7730   14.9900    5.1910 C   0  0  0  0  0  0  0  0  0  0  0  0
   11.9770   12.4500    2.6410 C   0  0  0  0  0  0  0  0  0  0  0  0
   12.2250   13.5130    3.5520 O   0  0  0  0  0  0  0  0  0  0  0  0
   13.1897   15.8264    4.6636 H   0  0  0  0  0  0  0  0  0  0  0  0
   15.6193   16.3868    4.8274 H   0  0  0  0  0  0  0  0  0  0  0  0
   14.1505   12.0733    2.7379 H   0  0  0  0  0  0  0  0  0  0  0  0
   16.9081   11.7260    2.4265 H   0  0  0  0  0  0  0  0  0  0  0  0
   19.0966   13.0211    2.9731 H   0  0  0  0  0  0  0  0  0  0  0  0
   18.0856   16.2656    4.9081 H   0  0  0  0  0  0  0  0  0  0  0  0
   19.8863   15.7588    2.5106 H   0  0  0  0  0  0  0  0  0  0  0  0
   18.4265   16.8333    2.5624 H   0  0  0  0  0  0  0  0  0  0  0  0
   20.8546   17.8302    2.8925 H   0  0  0  0  0  0  0  0  0  0  0  0
   19.4482   18.4097    3.8774 H   0  0  0  0  0  0  0  0  0  0  0  0
   21.7339   17.6846    4.9315 H   0  0  0  0  0  0  0  0  0  0  0  0
   20.2100   17.4615    5.6967 H   0  0  0  0  0  0  0  0  0  0  0  0
   21.6543   15.3645    4.2103 H   0  0  0  0  0  0  0  0  0  0  0  0
   21.6870   15.5685    5.9940 H   0  0  0  0  0  0  0  0  0  0  0  0
   19.9381   13.9402    4.9071 H   0  0  0  0  0  0  0  0  0  0  0  0
   19.4270   15.0854    6.2308 H   0  0  0  0  0  0  0  0  0  0  0  0
   11.7621   11.5287    3.2023 H   0  0  0  0  0  0  0  0  0  0  0  0
   11.1139   12.7035    2.0079 H   0  0  0  0  0  0  0  0  0  0  0  0
   12.8632   12.2954    2.0079 H   0  0  0  0  0  0  0  0  0  0  0  0
  2  1  2  0
  3  2  1  0
  4  3  2  0
  5  4  1  0
  6  5  2  0
  6  1  1  0
  7  5  1  0
  8  7  1  0
  9  4  1  0
  9  8  2  0
 10  9  1  0
 11 10  1  0
 12 11  1  0
 13 12  1  0
 14 13  1  0
 15 14  1  0
 15 10  1  0
 17 16  1  0
 17  1  1  0
  2 18  1  0
  3 19  1  0
  6 20  1  0
  7 21  1  0
  8 22  1  0
 10 23  1  0
 11 24  1  0
 11 25  1  0
 12 26  1  0
 12 27  1  0
 13 28  1  0
 13 29  1  0
 14 30  1  0
 14 31  1  0
 15 32  1  0
 15 33  1  0
 16 34  1  0
 16 35  1  0
 16 36  1  0
M  CHG  1  13   1
M  END
$$$$
=
     RDKit          3D

 57 59  0  0  0  0  0  0  0  0999 V2000
   13.6130   13.1120    3.3470 C   0  0  0  0  0  0  0  0  0  0  0  0
   12.5810   12.4650    2.6550 C   0  0  0  0  0  0  0  0  0  0  0  0
   11.2550   12.8360    2.8790 C   0  0  0  0  0  0  0  0  0  0  0  0
   10.9200   13.8410    3.7970 C   0  0  0  0  0  0  0  0  0  0  0  0
   11.9900   14.4810    4.4570 C   0  0  0  0  0  0  0  0  0  0  0  0
   13.3510   14.1590    4.2540 C   0  0  0  0  0  0  0  0  0  0  0  0
    9.5880   14.1870    4.0100 N   0  0  0  0  0  0  0  0  0  0  0  0
    8.8850   13.8300    5.2620 C   0  0  0  0  0  0  0  0  0  0  0  0
    8.1320   12.4760    5.1290 C   0  0  1  0  0  0  0  0  0  0  0  0
    6.6560   12.5750    5.4880 C   0  0  0  0  0  0  0  0  0  0  0  0
    8.2670   11.9260    3.7190 N   0  0  0  0  0  4  0  0  0  0  0  0
    7.9620   12.9060    2.5970 C   0  0  1  0  0  0  0  0  0  0  0  0
    8.6780   14.2680    2.8430 C   0  0  0  0  0  0  0  0  0  0  0  0
    8.4080   12.2570    1.2920 C   0  0  0  0  0  0  0  0  0  0  0  0
   15.7020   13.4210    2.4080 O   0  0  0  0  0  1  0  0  0  0  0  0
   14.9830   12.6690    3.0820 N   0  0  0  0  0  4  0  0  0  0  0  0
   15.3380   11.5790    3.5560 O   0  0  0  0  0  0  0  0  0  0  0  0
   14.3570   14.7430    5.0280 N   0  0  0  0  0  0  0  0  0  0  0  0
   15.0990   15.9430    4.6400 C   0  0  0  0  0  0  0  0  0  0  0  0
   16.4640   16.0620    5.3250 C   0  0  0  0  0  0  0  0  0  0  0  0
   17.4570   15.4520    4.4880 O   0  0  0  0  0  0  0  0  0  0  0  0
   18.7360   15.5020    4.9750 C   0  0  0  0  0  0  0  0  0  0  0  0
   19.0820   14.9170    6.1960 C   0  0  0  0  0  0  0  0  0  0  0  0
   20.3770   15.0530    6.6980 C   0  0  0  0  0  0  0  0  0  0  0  0
   21.3240   15.7890    5.9910 C   0  0  0  0  0  0  0  0  0  0  0  0
   20.9740   16.4000    4.7850 C   0  0  0  0  0  0  0  0  0  0  0  0
   19.6770   16.2660    4.2670 C   0  0  0  0  0  0  0  0  0  0  0  0
   19.2910   16.9980    3.0120 C   0  0  0  0  0  0  0  0  0  0  0  0
   12.8158   11.6660    1.9364 H   0  0  0  0  0  0  0  0  0  0  0  0
   10.4537   12.3281    2.3223 H   0  0  0  0  0  0  0  0  0  0  0  0
   11.7502   15.2800    5.1739 H   0  0  0  0  0  0  0  0  0  0  0  0
    9.6217   13.7505    6.0750 H   0  0  0  0  0  0  0  0  0  0  0  0
    8.1456   14.6154    5.4776 H   0  0  0  0  0  0  0  0  0  0  0  0
    8.6039   11.7932    5.8508 H   0  0  0  0  0  0  0  0  0  0  0  0
    6.5445   12.5825    6.5823 H   0  0  0  0  0  0  0  0  0  0  0  0
    6.2386   13.5032    5.0706 H   0  0  0  0  0  0  0  0  0  0  0  0
    6.1183   11.7109    5.0706 H   0  0  0  0  0  0  0  0  0  0  0  0
    9.2361   11.5986    3.5985 H   0  0  0  0  0  0  0  0  0  0  0  0
    7.5612   11.1800    3.6398 H   0  0  0  0  0  0  0  0  0  0  0  0
    6.8855   13.1277    2.5523 H   0  0  0  0  0  0  0  0  0  0  0  0
    9.2618   14.5339    1.9495 H   0  0  0  0  0  0  0  0  0  0  0  0
    7.9146   15.0333    3.0466 H   0  0  0  0  0  0  0  0  0  0  0  0
    9.0182   11.3691    1.5139 H   0  0  0  0  0  0  0  0  0  0  0  0
    7.5236   11.9581    0.7102 H   0  0  0  0  0  0  0  0  0  0  0  0
    9.0040   12.9755    0.7102 H   0  0  0  0  0  0  0  0  0  0  0  0
   14.5911   14.3010    5.9284 H   0  0  0  0  0  0  0  0  0  0  0  0
   15.2560   15.9192    3.5515 H   0  0  0  0  0  0  0  0  0  0  0  0
   14.5008   16.8108    4.9548 H   0  0  0  0  0  0  0  0  0  0  0  0
   16.7100   17.1233    5.4769 H   0  0  0  0  0  0  0  0  0  0  0  0
   16.4370   15.5564    6.3016 H   0  0  0  0  0  0  0  0  0  0  0  0
   18.3311   14.3474    6.7633 H   0  0  0  0  0  0  0  0  0  0  0  0
   20.6496   14.5787    7.6523 H   0  0  0  0  0  0  0  0  0  0  0  0
   22.3472   15.8892    6.3821 H   0  0  0  0  0  0  0  0  0  0  0  0
   21.7217   16.9915    4.2364 H   0  0  0  0  0  0  0  0  0  0  0  0
   18.7930   17.9424    3.2768 H   0  0  0  0  0  0  0  0  0  0  0  0
   20.1932   17.2126    2.4204 H   0  0  0  0  0  0  0  0  0  0  0  0
   18.6043   16.3747    2.4204 H   0  0  0  0  0  0  0  0  0  0  0  0
  2  1  2  0
  3  2  1  0
  4  3  2  0
  5  4  1  0
  6  5  2  0
  6  1  1  0
  7  4  1  0
  8  7  1  0
  9  8  1  0
 10  9  1  0
 11  9  1  0
 12 11  1  0
 13 12  1  0
 13  7  1  0
 14 12  1  0
 16 15  1  0
 16  1  1  0
 17 16  2  0
 18  6  1  0
 19 18  1  0
 20 19  1  0
 21 20  1  0
 22 21  1  0
 23 22  2  0
 24 23  1  0
 25 24  2  0
 26 25  1  0
 27 22  1  0
 27 26  2  0
 28 27  1  0
  2 29  1  0
  3 30  1  0
  5 31  1  0
  8 32  1  0
  8 33  1  0
  9 34  1  1
 10 35  1  0
 10 36  1  0
 10 37  1  0
 11 38  1  0
 11 39  1  0
 12 40  1  6
 13 41  1  0
 13 42  1  0
 14 43  1  0
 14 44  1  0
 14 45  1  0
 18 46  1  0
 19 47  1  0
 19 48  1  0
 20 49  1  0
 20 50  1  0
 23 51  1  0
 24 52  1  0
 25 53  1  0
 26 54  1  0
 28 55  1  0
 28 56  1  0
 28 57  1  0
M  CHG  3  11   1  15  -1  16   1
M  END
$$$$
=
     RDKit          3D

 36 36  0  0  0  0  0  0  0  0999 V2000
   15.6770   15.8930    4.7800 C   0  0  2  0  0  0  0  0  0  0  0  0
   14.3960   15.2530    4.2490 C   0  0  0  0  0  0  0  0  0  0  0  0
   14.5930   13.7870    3.9100 C   0  0  0  0  0  0  0  0  0  0  0  0
   15.6820   13.6480    3.0080 O   0  0  0  0  0  0  0  0  0  0  0  0
   16.9290   14.0570    3.5540 C   0  0  0  0  0  0  0  0  0  0  0  0
   16.9200   15.5530    3.9040 C   0  0  2  0  0  0  0  0  0  0  0  0
   15.8710   15.4860    6.2090 N   0  0  0  0  0  4  0  0  0  0  0  0
   18.2450   15.9560    4.3920 N   0  0  0  0  0  0  0  0  0  0  0  0
   19.2680   16.4810    3.6670 C   0  0  0  0  0  0  0  0  0  0  0  0
   19.1120   17.0140    2.5790 O   0  0  0  0  0  0  0  0  0  0  0  0
   20.4120   16.3530    4.3600 O   0  0  0  0  0  0  0  0  0  0  0  0
   21.0710   17.5060    4.9520 C   0  0  0  0  0  0  0  0  0  0  0  0
   20.0500   18.4630    5.5770 C   0  0  0  0  0  0  0  0  0  0  0  0
   21.9540   16.9260    6.0670 C   0  0  0  0  0  0  0  0  0  0  0  0
   21.9670   18.2140    3.9310 C   0  0  0  0  0  0  0  0  0  0  0  0
   15.5706   16.9866    4.7273 H   0  0  0  0  0  0  0  0  0  0  0  0
   13.6118   15.3382    5.0157 H   0  0  0  0  0  0  0  0  0  0  0  0
   14.1090   15.7800    3.3271 H   0  0  0  0  0  0  0  0  0  0  0  0
   14.8061   13.2239    4.8306 H   0  0  0  0  0  0  0  0  0  0  0  0
   13.6784   13.3946    3.4414 H   0  0  0  0  0  0  0  0  0  0  0  0
   17.1285   13.4764    4.4668 H   0  0  0  0  0  0  0  0  0  0  0  0
   17.7124   13.8805    2.8023 H   0  0  0  0  0  0  0  0  0  0  0  0
   16.7735   16.1909    3.0199 H   0  0  0  0  0  0  0  0  0  0  0  0
   15.5170   16.2287    6.8286 H   0  0  0  0  0  0  0  0  0  0  0  0
   15.3555   14.6129    6.3903 H   0  0  0  0  0  0  0  0  0  0  0  0
   16.8738   15.3366    6.3903 H   0  0  0  0  0  0  0  0  0  0  0  0
   18.4192   15.8260    5.3988 H   0  0  0  0  0  0  0  0  0  0  0  0
   20.1143   18.4027    6.6735 H   0  0  0  0  0  0  0  0  0  0  0  0
   20.2657   19.4919    5.2531 H   0  0  0  0  0  0  0  0  0  0  0  0
   19.0372   18.1813    5.2531 H   0  0  0  0  0  0  0  0  0  0  0  0
   21.5356   17.2009    7.0465 H   0  0  0  0  0  0  0  0  0  0  0  0
   21.9863   15.8302    5.9765 H   0  0  0  0  0  0  0  0  0  0  0  0
   22.9725   17.3316    5.9765 H   0  0  0  0  0  0  0  0  0  0  0  0
   22.7238   18.8120    4.4597 H   0  0  0  0  0  0  0  0  0  0  0  0
   22.4671   17.4645    3.3000 H   0  0  0  0  0  0  0  0  0  0  0  0
   21.3535   18.8739    3.3000 H   0  0  0  0  0  0  0  0  0  0  0  0
  2  1  1  0
  3  2  1  0
  4  3  1  0
  5  4  1  0
  6  1  1  0
  6  5  1  0
  7  1  1  0
  8  6  1  0
  9  8  1  0
 10  9  2  0
 11  9  1  0
 12 11  1  0
 13 12  1  0
 14 12  1  0
 15 12  1  0
  1 16  1  1
  2 17  1  0
  2 18  1  0
  3 19  1  0
  3 20  1  0
  5 21  1  0
  5 22  1  0
  6 23  1  6
  7 24  1  0
  7 25  1  0
  7 26  1  0
  8 27  1  0
 13 28  1  0
 13 29  1  0
 13 30  1  0
 14 31  1  0
 14 32  1  0
 14 33  1  0
 15 34  1  0
 15 35  1  0
 15 36  1  0
M  CHG  1   7   1
M  END
$$$$
=
     RDKit          3D

 45 48  0  0  0  0  0  0  0  0999 V2000
   13.3180   12.9870    3.8750 C   0  0  2  0  0  0  0  0  0  0  0  0
   13.6670   14.3790    4.5160 C   0  0  0  0  0  0  0  0  0  0  0  0
   14.7400   15.1580    3.7400 C   0  0  1  0  0  0  0  0  0  0  0  0
   15.1840   16.4830    4.3620 C   0  0  0  0  0  0  0  0  0  0  0  0
   16.0690   16.3930    5.5040 N   0  0  0  0  0  0  0  0  0  0  0  0
   17.4010   16.1080    5.4570 C   0  0  0  0  0  0  0  0  0  0  0  0
   18.1560   16.6250    6.2770 O   0  0  0  0  0  0  0  0  0  0  0  0
   17.9540   15.1230    4.5010 C   0  0  0  0  0  0  0  0  0  0  0  0
   17.2390   14.3120    3.7260 C   0  0  0  0  0  0  0  0  0  0  0  0
   15.8470   14.2250    3.4540 C   0  0  0  0  0  0  0  0  0  0  0  0
   15.6470   13.0150    2.9140 C   0  0  0  0  0  0  0  0  0  0  0  0
   14.2650   12.4890    2.7350 C   0  0  0  0  0  0  0  0  0  0  0  0
   16.7980   12.2930    2.6510 N   0  0  0  0  0  0  0  0  0  0  0  0
   17.7510   13.0710    3.1040 C   0  0  0  0  0  0  0  0  0  0  0  0
   19.0410   12.7520    3.0500 F   0  0  0  0  0  0  0  0  0  0  0  0
    9.1530   12.7790    2.6490 C   0  0  0  0  0  0  0  0  0  0  0  0
    9.5510   13.6180    3.6980 C   0  0  0  0  0  0  0  0  0  0  0  0
   10.8920   13.6840    4.0820 C   0  0  0  0  0  0  0  0  0  0  0  0
   11.8630   12.9120    3.4300 C   0  0  0  0  0  0  0  0  0  0  0  0
   11.4620   12.0740    2.3820 C   0  0  0  0  0  0  0  0  0  0  0  0
   10.1210   12.0040    1.9960 C   0  0  0  0  0  0  0  0  0  0  0  0
    7.7030   12.6640    2.2760 C   0  0  0  0  0  0  0  0  0  0  0  0
    6.3940   11.6480    4.1530 C   0  0  0  0  0  0  0  0  0  0  0  0
    7.1060   11.4340    2.8720 N   0  0  0  0  0  4  0  0  0  0  0  0
   13.4904   12.2862    4.7051 H   0  0  0  0  0  0  0  0  0  0  0  0
   12.7508   14.9868    4.5491 H   0  0  0  0  0  0  0  0  0  0  0  0
   14.0722   14.1813    5.5193 H   0  0  0  0  0  0  0  0  0  0  0  0
   14.2926   15.5152    2.8007 H   0  0  0  0  0  0  0  0  0  0  0  0
   15.7011   17.0620    3.5826 H   0  0  0  0  0  0  0  0  0  0  0  0
   14.2636   16.9507    4.7416 H   0  0  0  0  0  0  0  0  0  0  0  0
   15.6562   16.5588    6.4330 H   0  0  0  0  0  0  0  0  0  0  0  0
   19.0493   15.0557    4.4248 H   0  0  0  0  0  0  0  0  0  0  0  0
   13.8727   12.8333    1.7667 H   0  0  0  0  0  0  0  0  0  0  0  0
   14.3035   11.3902    2.7695 H   0  0  0  0  0  0  0  0  0  0  0  0
    8.8019   14.2291    4.2229 H   0  0  0  0  0  0  0  0  0  0  0  0
   11.1896   14.3496    4.9057 H   0  0  0  0  0  0  0  0  0  0  0  0
   12.2115   11.4638    1.8567 H   0  0  0  0  0  0  0  0  0  0  0  0
    9.8231   11.3362    1.1742 H   0  0  0  0  0  0  0  0  0  0  0  0
    7.1622   13.5462    2.6492 H   0  0  0  0  0  0  0  0  0  0  0  0
    7.6212   12.6042    1.1807 H   0  0  0  0  0  0  0  0  0  0  0  0
    7.0767   11.4428    4.9907 H   0  0  0  0  0  0  0  0  0  0  0  0
    6.0468   12.6902    4.2098 H   0  0  0  0  0  0  0  0  0  0  0  0
    5.5297   10.9699    4.2098 H   0  0  0  0  0  0  0  0  0  0  0  0
    7.8644   10.7567    3.0361 H   0  0  0  0  0  0  0  0  0  0  0  0
    6.4007   11.0989    2.2003 H   0  0  0  0  0  0  0  0  0  0  0  0
  2  1  1  0
  3  2  1  0
  4  3  1  0
  5  4  1  0
  6  5  1  0
  7  6  2  0
  8  6  1  0
  9  8  2  0
 10  3  1  0
 10  9  1  0
 11 10  2  0
 12 11  1  0
 12  1  1  0
 13 11  1  0
 14 13  2  0
 14  9  1  0
 15 14  1  0
 17 16  2  0
 18 17  1  0
 19 18  2  0
 19  1  1  0
 20 19  1  0
 21 16  1  0
 21 20  2  0
 22 16  1  0
 24 23  1  0
 24 22  1  0
  1 25  1  1
  2 26  1  0
  2 27  1  0
  3 28  1  6
  4 29  1  0
  4 30  1  0
  5 31  1  0
  8 32  1  0
 12 33  1  0
 12 34  1  0
 17 35  1  0
 18 36  1  0
 20 37  1  0
 21 38  1  0
 22 39  1  0
 22 40  1  0
 23 41  1  0
 23 42  1  0
 23 43  1  0
 24 44  1  0
 24 45  1  0
M  CHG  1  24   1
M  END
$$$$
=
     RDKit          3D

 47 47  0  0  0  0  0  0  0  0999 V2000
   29.3130   23.6570   14.4280 O   0  0  0  0  0  0  0  0  0  0  0  0
   28.3620   24.3720   14.1300 C   0  0  0  0  0  0  0  0  0  0  0  0
   28.1250   25.6120   14.6780 N   0  0  0  0  0  0  0  0  0  0  0  0
   29.2390   26.4040   14.8650 C   0  0  0  0  0  0  0  0  0  0  0  0
   30.2360   26.3700   14.1500 O   0  0  0  0  0  0  0  0  0  0  0  0
   26.8170   26.1180   14.9290 C   0  0  0  0  0  0  0  0  0  0  0  0
   26.4590   26.5770   16.1840 C   0  0  0  0  0  0  0  0  0  0  0  0
   25.1790   27.0550   16.3410 C   0  0  0  0  0  0  0  0  0  0  0  0
   24.7410   27.5170   17.5810 N   0  0  0  0  0  0  0  0  0  0  0  0
   24.2870   27.0780   15.3500 N   0  0  0  0  0  0  0  0  0  0  0  0
   24.7000   26.6170   14.1600 C   0  0  0  0  0  0  0  0  0  0  0  0
   25.9340   26.1530   13.9090 N   0  0  0  0  0  0  0  0  0  0  0  0
   23.7350   26.6710   13.0180 C   0  0  0  0  0  0  0  0  0  0  0  0
   29.1160   27.2450   15.9340 O   0  0  0  0  0  0  0  0  0  0  0  0
   29.3640   28.6680   15.8120 C   0  0  0  0  0  0  0  0  0  0  0  0
   30.8510   28.9930   15.9910 C   0  0  0  0  0  0  0  0  0  0  0  0
   28.8070   29.2200   14.4950 C   0  0  0  0  0  0  0  0  0  0  0  0
   28.5810   29.2960   16.9750 C   0  0  0  0  0  0  0  0  0  0  0  0
   27.3860   23.9880   13.2550 O   0  0  0  0  0  0  0  0  0  0  0  0
   27.5890   24.0490   11.8180 C   0  0  0  0  0  0  0  0  0  0  0  0
   26.1860   23.8510   11.2230 C   0  0  0  0  0  0  0  0  0  0  0  0
   28.4900   22.9090   11.3340 C   0  0  0  0  0  0  0  0  0  0  0  0
   28.1140   25.4230   11.3860 C   0  0  0  0  0  0  0  0  0  0  0  0
   27.1700   26.5603   17.0232 H   0  0  0  0  0  0  0  0  0  0  0  0
   23.7804   27.8730   17.6880 H   0  0  0  0  0  0  0  0  0  0  0  0
   25.3779   27.5024   18.3903 H   0  0  0  0  0  0  0  0  0  0  0  0
   22.7081   26.7285   13.4081 H   0  0  0  0  0  0  0  0  0  0  0  0
   23.9439   27.5589   12.4031 H   0  0  0  0  0  0  0  0  0  0  0  0
   23.8435   25.7654   12.4031 H   0  0  0  0  0  0  0  0  0  0  0  0
   31.0884   29.0449   17.0638 H   0  0  0  0  0  0  0  0  0  0  0  0
   31.4577   28.2063   15.5188 H   0  0  0  0  0  0  0  0  0  0  0  0
   31.0742   29.9611   15.5188 H   0  0  0  0  0  0  0  0  0  0  0  0
   28.0408   29.9793   14.7105 H   0  0  0  0  0  0  0  0  0  0  0  0
   29.6224   29.6764   13.9147 H   0  0  0  0  0  0  0  0  0  0  0  0
   28.3580   28.4005   13.9147 H   0  0  0  0  0  0  0  0  0  0  0  0
   29.0066   28.9547   17.9302 H   0  0  0  0  0  0  0  0  0  0  0  0
   28.6498   30.3921   16.9138 H   0  0  0  0  0  0  0  0  0  0  0  0
   27.5259   28.9909   16.9138 H   0  0  0  0  0  0  0  0  0  0  0  0
   25.4537   23.7476   12.0372 H   0  0  0  0  0  0  0  0  0  0  0  0
   25.9245   24.7211   10.6029 H   0  0  0  0  0  0  0  0  0  0  0  0
   26.1756   22.9425   10.6029 H   0  0  0  0  0  0  0  0  0  0  0  0
   28.9089   22.3789   12.2021 H   0  0  0  0  0  0  0  0  0  0  0  0
   27.8995   22.2077   10.7262 H   0  0  0  0  0  0  0  0  0  0  0  0
   29.3087   23.3215   10.7262 H   0  0  0  0  0  0  0  0  0  0  0  0
   28.3439   26.0246   12.2777 H   0  0  0  0  0  0  0  0  0  0  0  0
   29.0264   25.2946   10.7851 H   0  0  0  0  0  0  0  0  0  0  0  0
   27.3484   25.9357   10.7851 H   0  0  0  0  0  0  0  0  0  0  0  0
  2  1  2  0
  3  2  1  0
  4  3  1  0
  5  4  2  0
  6  3  1  0
  7  6  2  0
  8  7  1  0
  9  8  1  0
 10  8  2  0
 11 10  1  0
 12 11  2  0
 12  6  1  0
 13 11  1  0
 14  4  1  0
 15 14  1  0
 16 15  1  0
 17 15  1  0
 18 15  1  0
 19  2  1  0
 20 19  1  0
 21 20  1  0
 22 20  1  0
 23 20  1  0
  7 24  1  0
  9 25  1  0
  9 26  1  0
 13 27  1  0
 13 28  1  0
 13 29  1  0
 16 30  1  0
 16 31  1  0
 16 32  1  0
 17 33  1  0
 17 34  1  0
 17 35  1  0
 18 36  1  0
 18 37  1  0
 18 38  1  0
 21 39  1  0
 21 40  1  0
 21 41  1  0
 22 42  1  0
 22 43  1  0
 22 44  1  0
 23 45  1  0
 23 46  1  0
 23 47  1  0
M  END
$$$$
=
     RDKit          3D

 39 40  0  0  0  0  0  0  0  0999 V2000
   17.0740   15.3460    4.3140 C   0  0  0  0  0  0  0  0  0  0  0  0
   15.9980   15.7610    5.1140 C   0  0  0  0  0  0  0  0  0  0  0  0
   14.7340   15.1500    5.0650 C   0  0  0  0  0  0  0  0  0  0  0  0
   14.4890   14.0830    4.1970 C   0  0  0  0  0  0  0  0  0  0  0  0
   15.5450   13.6480    3.3940 C   0  0  0  0  0  0  0  0  0  0  0  0
   16.8020   14.2700    3.4550 C   0  0  0  0  0  0  0  0  0  0  0  0
   13.1660   13.3750    4.1460 C   0  0  1  0  0  0  0  0  0  0  0  0
   12.0250   14.2990    4.4910 N   0  0  0  0  0  4  0  0  0  0  0  0
   10.8730   14.0000    3.5850 C   0  0  0  0  0  0  0  0  0  0  0  0
   11.2420   12.6870    2.9260 C   0  0  0  0  0  0  0  0  0  0  0  0
   12.7530   12.7750    2.8030 C   0  0  0  0  0  0  0  0  0  0  0  0
   18.3210   15.9540    4.3700 N   0  0  0  0  0  0  0  0  0  0  0  0
   19.5850   17.8390    3.3660 C   0  0  0  0  0  0  0  0  0  0  0  0
   19.0130   16.4420    3.1650 C   0  0  0  0  0  0  0  0  0  0  0  0
   19.0290   16.1590    5.6450 C   0  0  0  0  0  0  0  0  0  0  0  0
   19.5800   14.8510    6.1940 C   0  0  0  0  0  0  0  0  0  0  0  0
   16.1509   16.6001    5.8087 H   0  0  0  0  0  0  0  0  0  0  0  0
   13.9277   15.5159    5.7177 H   0  0  0  0  0  0  0  0  0  0  0  0
   15.3898   12.8058    2.7036 H   0  0  0  0  0  0  0  0  0  0  0  0
   17.6065   13.8989    2.8030 H   0  0  0  0  0  0  0  0  0  0  0  0
   13.3369   12.5638    4.8690 H   0  0  0  0  0  0  0  0  0  0  0  0
   11.7430   14.1504    5.4704 H   0  0  0  0  0  0  0  0  0  0  0  0
   12.3193   15.2788    4.3718 H   0  0  0  0  0  0  0  0  0  0  0  0
    9.9413   13.8981    4.1609 H   0  0  0  0  0  0  0  0  0  0  0  0
   10.6970   14.8016    2.8525 H   0  0  0  0  0  0  0  0  0  0  0  0
   10.9461   11.8335    3.5536 H   0  0  0  0  0  0  0  0  0  0  0  0
   10.7383   12.5316    1.9605 H   0  0  0  0  0  0  0  0  0  0  0  0
   13.1978   11.7792    2.6601 H   0  0  0  0  0  0  0  0  0  0  0  0
   13.0864   13.3688    1.9391 H   0  0  0  0  0  0  0  0  0  0  0  0
   19.6709   18.0487    4.4424 H   0  0  0  0  0  0  0  0  0  0  0  0
   20.5798   17.8984    2.9004 H   0  0  0  0  0  0  0  0  0  0  0  0
   18.9175   18.5790    2.9004 H   0  0  0  0  0  0  0  0  0  0  0  0
   19.8351   15.7524    2.9230 H   0  0  0  0  0  0  0  0  0  0  0  0
   18.2803   16.4879    2.3458 H   0  0  0  0  0  0  0  0  0  0  0  0
   19.8628   16.8578    5.4824 H   0  0  0  0  0  0  0  0  0  0  0  0
   18.3138   16.5656    6.3752 H   0  0  0  0  0  0  0  0  0  0  0  0
   19.5675   14.8806    7.2935 H   0  0  0  0  0  0  0  0  0  0  0  0
   18.9577   14.0148    5.8427 H   0  0  0  0  0  0  0  0  0  0  0  0
   20.6131   14.7121    5.8427 H   0  0  0  0  0  0  0  0  0  0  0  0
  2  1  2  0
  3  2  1  0
  4  3  2  0
  5  4  1  0
  6  5  2  0
  6  1  1  0
  7  4  1  0
  8  7  1  0
  9  8  1  0
 10  9  1  0
 11 10  1  0
 11  7  1  0
 12  1  1  0
 14 12  1  0
 14 13  1  0
 15 12  1  0
 16 15  1  0
  2 17  1  0
  3 18  1  0
  5 19  1  0
  6 20  1  0
  7 21  1  1
  8 22  1  0
  8 23  1  0
  9 24  1  0
  9 25  1  0
 10 26  1  0
 10 27  1  0
 11 28  1  0
 11 29  1  0
 13 30  1  0
 13 31  1  0
 13 32  1  0
 14 33  1  0
 14 34  1  0
 15 35  1  0
 15 36  1  0
 16 37  1  0
 16 38  1  0
 16 39  1  0
M  CHG  1   8   1
M  END
$$$$
=
     RDKit          3D

 37 39  0  0  0  0  0  0  0  0999 V2000
   19.0660   15.6070    4.3380 N   0  0  0  0  0  0  0  0  0  0  0  0
   19.1730   14.1360    4.2780 C   0  0  0  0  0  0  0  0  0  0  0  0
   18.1450   13.5200    3.3130 C   0  0  0  0  0  0  0  0  0  0  0  0
   16.7700   13.9350    3.5980 N   0  0  0  0  0  0  0  0  0  0  0  0
   16.6060   15.2900    4.1380 C   0  0  0  0  0  0  0  0  0  0  0  0
   17.8140   16.2080    3.8560 C   0  0  0  0  0  0  0  0  0  0  0  0
   15.7280   13.1510    3.0970 C   0  0  0  0  0  0  0  0  0  0  0  0
   15.9710   12.1900    2.3660 O   0  0  0  0  0  0  0  0  0  0  0  0
   22.4710   18.0060    5.1720 C   0  0  0  0  0  0  0  0  0  0  0  0
   22.1930   16.8740    5.9320 C   0  0  0  0  0  0  0  0  0  0  0  0
   21.0610   16.0890    5.6650 C   0  0  0  0  0  0  0  0  0  0  0  0
   20.1860   16.3790    4.6100 C   0  0  0  0  0  0  0  0  0  0  0  0
   20.5240   17.4850    3.8160 C   0  0  0  0  0  0  0  0  0  0  0  0
   21.6560   18.2730    4.0770 C   0  0  0  0  0  0  0  0  0  0  0  0
   23.6590   18.7170    5.3640 N   0  0  0  0  0  0  0  0  0  0  0  0
   14.3680   13.5010    3.4870 C   0  0  0  0  0  0  0  0  0  0  0  0
   13.9190   14.5200    4.3070 C   0  0  0  0  0  0  0  0  0  0  0  0
   12.5010   14.5210    4.4500 C   0  0  0  0  0  0  0  0  0  0  0  0
   11.9140   13.4910    3.7500 C   0  0  0  0  0  0  0  0  0  0  0  0
   13.0690   12.5270    2.9360 S   0  0  0  0  0  0  0  0  0  0  0  0
   20.1841   13.8675    3.9380 H   0  0  0  0  0  0  0  0  0  0  0  0
   18.9723   13.7403    5.2846 H   0  0  0  0  0  0  0  0  0  0  0  0
   18.3985   13.8281    2.2879 H   0  0  0  0  0  0  0  0  0  0  0  0
   18.1909   12.4281    3.4377 H   0  0  0  0  0  0  0  0  0  0  0  0
   15.7110   15.7410    3.6845 H   0  0  0  0  0  0  0  0  0  0  0  0
   16.5142   15.1973    5.2302 H   0  0  0  0  0  0  0  0  0  0  0  0
   17.8912   16.3755    2.7716 H   0  0  0  0  0  0  0  0  0  0  0  0
   17.6586   17.1589    4.3867 H   0  0  0  0  0  0  0  0  0  0  0  0
   22.8690   16.5910    6.7523 H   0  0  0  0  0  0  0  0  0  0  0  0
   20.8540   15.2182    6.3044 H   0  0  0  0  0  0  0  0  0  0  0  0
   19.8813   17.7431    2.9614 H   0  0  0  0  0  0  0  0  0  0  0  0
   21.9013   19.1110    3.4080 H   0  0  0  0  0  0  0  0  0  0  0  0
   23.8559   19.5537    4.7965 H   0  0  0  0  0  0  0  0  0  0  0  0
   24.3376   18.4042    6.0729 H   0  0  0  0  0  0  0  0  0  0  0  0
   14.5828   15.2490    4.7948 H   0  0  0  0  0  0  0  0  0  0  0  0
   11.9426   15.2564    5.0478 H   0  0  0  0  0  0  0  0  0  0  0  0
   10.8296   13.3093    3.7179 H   0  0  0  0  0  0  0  0  0  0  0  0
  2  1  1  0
  3  2  1  0
  4  3  1  0
  5  4  1  0
  6  5  1  0
  6  1  1  0
  7  4  1  0
  8  7  2  0
 10  9  2  0
 11 10  1  0
 12  1  1  0
 12 11  2  0
 13 12  1  0
 14 13  2  0
 14  9  1  0
 15  9  1  0
 16  7  1  0
 17 16  2  0
 18 17  1  0
 19 18  2  0
 20 19  1  0
 20 16  1  0
  2 21  1  0
  2 22  1  0
  3 23  1  0
  3 24  1  0
  5 25  1  0
  5 26  1  0
  6 27  1  0
  6 28  1  0
 10 29  1  0
 11 30  1  0
 13 31  1  0
 14 32  1  0
 15 33  1  0
 15 34  1  0
 17 35  1  0
 18 36  1  0
 19 37  1  0
M  END
$$$$
=
     RDKit          3D

 43 44  0  0  0  0  0  0  0  0999 V2000
   26.9390   25.0510   11.2090 N   0  0  0  0  0  0  0  0  0  0  0  0
   26.3330   25.6240   12.3240 C   0  0  0  0  0  0  0  0  0  0  0  0
   27.0540   25.8900   13.4440 N   0  0  0  0  0  0  0  0  0  0  0  0
   26.4680   26.4720   14.5110 C   0  0  0  0  0  0  0  0  0  0  0  0
   25.1760   26.8450   14.6110 N   0  0  0  0  0  0  0  0  0  0  0  0
   24.4960   26.5580   13.4940 C   0  0  0  0  0  0  0  0  0  0  0  0
   24.9820   25.9850   12.3360 C   0  0  0  0  0  0  0  0  0  0  0  0
   23.8680   25.9730   11.4660 C   0  0  0  0  0  0  0  0  0  0  0  0
   22.7680   26.5030   12.0230 N   0  0  0  0  0  0  0  0  0  0  0  0
   23.1740   26.8030   13.2690 N   0  0  0  0  0  0  0  0  0  0  0  0
   28.2150   24.3840   11.4410 C   0  0  0  0  0  0  0  0  0  0  0  0
   26.7440   22.3580   10.9740 C   0  0  0  0  0  0  0  0  0  0  0  0
   28.1560   22.9300   10.9700 C   0  0  0  0  0  0  0  0  0  0  0  0
   27.4600   26.8230   15.9470 S   0  0  0  0  0  0  0  0  0  0  0  0
   28.9950   27.4180   15.1570 C   0  0  0  0  0  0  0  0  0  0  0  0
   29.0140   28.9420   15.0200 C   0  0  0  0  0  0  0  0  0  0  0  0
   28.2440   29.4610   13.8130 C   0  0  0  0  0  0  0  0  0  0  0  0
   22.2610   27.4240   14.2020 C   0  0  0  0  0  0  0  0  0  0  0  0
   21.1220   28.0950   13.4500 C   0  0  0  0  0  0  0  0  0  0  0  0
   21.5820   29.3500   12.7870 N   0  0  0  0  0  4  0  0  0  0  0  0
   26.5104   25.0957   10.2735 H   0  0  0  0  0  0  0  0  0  0  0  0
   23.8993   25.5722   10.4421 H   0  0  0  0  0  0  0  0  0  0  0  0
   29.0049   24.9118   10.8865 H   0  0  0  0  0  0  0  0  0  0  0  0
   28.4320   24.3989   12.5193 H   0  0  0  0  0  0  0  0  0  0  0  0
   26.4067   22.2214   12.0121 H   0  0  0  0  0  0  0  0  0  0  0  0
   26.0657   23.0523   10.4564 H   0  0  0  0  0  0  0  0  0  0  0  0
   26.7401   21.3874   10.4564 H   0  0  0  0  0  0  0  0  0  0  0  0
   28.7828   22.3201   11.6371 H   0  0  0  0  0  0  0  0  0  0  0  0
   28.5167   22.9066    9.9311 H   0  0  0  0  0  0  0  0  0  0  0  0
   29.8539   27.1055   15.7690 H   0  0  0  0  0  0  0  0  0  0  0  0
   29.0482   26.9848   14.1473 H   0  0  0  0  0  0  0  0  0  0  0  0
   28.5703   29.3772   15.9276 H   0  0  0  0  0  0  0  0  0  0  0  0
   30.0643   29.2378   14.8809 H   0  0  0  0  0  0  0  0  0  0  0  0
   27.3770   30.0454   14.1548 H   0  0  0  0  0  0  0  0  0  0  0  0
   28.9014   30.1010   13.2062 H   0  0  0  0  0  0  0  0  0  0  0  0
   27.8974   28.6115   13.2062 H   0  0  0  0  0  0  0  0  0  0  0  0
   21.8506   26.6567   14.8749 H   0  0  0  0  0  0  0  0  0  0  0  0
   22.8032   28.1824   14.7859 H   0  0  0  0  0  0  0  0  0  0  0  0
   20.7402   27.4034   12.6845 H   0  0  0  0  0  0  0  0  0  0  0  0
   20.3304   28.3500   14.1699 H   0  0  0  0  0  0  0  0  0  0  0  0
   21.8364   30.0439   13.5044 H   0  0  0  0  0  0  0  0  0  0  0  0
   22.4032   29.1468   12.1995 H   0  0  0  0  0  0  0  0  0  0  0  0
   20.8240   29.7256   12.1995 H   0  0  0  0  0  0  0  0  0  0  0  0
  2  1  1  0
  3  2  2  0
  4  3  1  0
  5  4  2  0
  6  5  1  0
  7  6  2  0
  7  2  1  0
  8  7  1  0
  9  8  2  0
 10  9  1  0
 10  6  1  0
 11  1  1  0
 13 12  1  0
 13 11  1  0
 14  4  1  0
 15 14  1  0
 16 15  1  0
 17 16  1  0
 18 10  1  0
 19 18  1  0
 20 19  1  0
  1 21  1  0
  8 22  1  0
 11 23  1  0
 11 24  1  0
 12 25  1  0
 12 26  1  0
 12 27  1  0
 13 28  1  0
 13 29  1  0
 15 30  1  0
 15 31  1  0
 16 32  1  0
 16 33  1  0
 17 34  1  0
 17 35  1  0
 17 36  1  0
 18 37  1  0
 18 38  1  0
 19 39  1  0
 19 40  1  0
 20 41  1  0
 20 42  1  0
 20 43  1  0
M  CHG  1  20   1
M  END
$$$$
=
     RDKit          3D

 34 35  0  0  0  0  0  0  0  0999 V2000
   16.9930   15.6110    4.2880 C   0  0  0  0  0  0  0  0  0  0  0  0
   18.4160   15.1450    3.9020 C   0  0  2  0  0  0  0  0  0  0  0  0
   19.2190   14.6210    5.1140 C   0  0  0  0  0  0  0  0  0  0  0  0
   20.4050   15.5090    5.4950 C   0  0  0  0  0  0  0  0  0  0  0  0
   20.0300   16.9770    5.4640 C   0  0  0  0  0  0  0  0  0  0  0  0
   19.5350   17.3700    4.1070 N   0  0  0  0  0  4  0  0  0  0  0  0
   19.1730   16.2580    3.1750 C   0  0  0  0  0  0  0  0  0  0  0  0
   12.1510   14.1840    4.3660 C   0  0  0  0  0  0  0  0  0  0  0  0
   13.5630   13.9660    3.9080 C   0  0  0  0  0  0  0  0  0  0  0  0
   13.8910   12.8370    3.1500 C   0  0  0  0  0  0  0  0  0  0  0  0
   15.2090   12.6110    2.7580 C   0  0  0  0  0  0  0  0  0  0  0  0
   16.2140   13.5070    3.1240 C   0  0  0  0  0  0  0  0  0  0  0  0
   15.9090   14.6420    3.8870 C   0  0  0  0  0  0  0  0  0  0  0  0
   14.5790   14.8540    4.2850 C   0  0  0  0  0  0  0  0  0  0  0  0
   16.9547   15.7430    5.3794 H   0  0  0  0  0  0  0  0  0  0  0  0
   16.8032   16.5488    3.7454 H   0  0  0  0  0  0  0  0  0  0  0  0
   18.3000   14.2949    3.2136 H   0  0  0  0  0  0  0  0  0  0  0  0
   18.5414   14.5566    5.9781 H   0  0  0  0  0  0  0  0  0  0  0  0
   19.6292   13.6409    4.8290 H   0  0  0  0  0  0  0  0  0  0  0  0
   20.7373   15.2460    6.5101 H   0  0  0  0  0  0  0  0  0  0  0  0
   21.2105   15.3423    4.7647 H   0  0  0  0  0  0  0  0  0  0  0  0
   19.2382   17.1628    6.2046 H   0  0  0  0  0  0  0  0  0  0  0  0
   20.9229   17.5743    5.7006 H   0  0  0  0  0  0  0  0  0  0  0  0
   18.6960   17.9530    4.2378 H   0  0  0  0  0  0  0  0  0  0  0  0
   20.3280   17.8508    3.6589 H   0  0  0  0  0  0  0  0  0  0  0  0
   20.0936   15.8405    2.7412 H   0  0  0  0  0  0  0  0  0  0  0  0
   18.5203   16.6641    2.3882 H   0  0  0  0  0  0  0  0  0  0  0  0
   12.1188   14.1890    5.4655 H   0  0  0  0  0  0  0  0  0  0  0  0
   11.7865   15.1491    3.9841 H   0  0  0  0  0  0  0  0  0  0  0  0
   11.5124   13.3738    3.9841 H   0  0  0  0  0  0  0  0  0  0  0  0
   13.1045   12.1240    2.8619 H   0  0  0  0  0  0  0  0  0  0  0  0
   15.4579   11.7233    2.1580 H   0  0  0  0  0  0  0  0  0  0  0  0
   17.2522   13.3212    2.8116 H   0  0  0  0  0  0  0  0  0  0  0  0
   14.3312   15.7303    4.9020 H   0  0  0  0  0  0  0  0  0  0  0  0
  2  1  1  0
  3  2  1  0
  4  3  1  0
  5  4  1  0
  6  5  1  0
  7  2  1  0
  7  6  1  0
  9  8  1  0
 10  9  2  0
 11 10  1  0
 12 11  2  0
 13 12  1  0
 13  1  1  0
 14 13  2  0
 14  9  1  0
  1 15  1  0
  1 16  1  0
  2 17  1  6
  3 18  1  0
  3 19  1  0
  4 20  1  0
  4 21  1  0
  5 22  1  0
  5 23  1  0
  6 24  1  0
  6 25  1  0
  7 26  1  0
  7 27  1  0
  8 28  1  0
  8 29  1  0
  8 30  1  0
 10 31  1  0
 11 32  1  0
 12 33  1  0
 14 34  1  0
M  CHG  1   6   1
M  END
$$$$
=
     RDKit          3D

 46 48  0  0  0  0  0  0  0  0999 V2000
   27.6770   24.5650   12.5520 C   0  0  2  0  0  0  0  0  0  0  0  0
   26.9550   25.9100   12.7100 C   0  0  1  0  0  0  0  0  0  0  0  0
   26.2070   24.6210   12.9650 C   0  0  1  0  0  0  0  0  0  0  0  0
   27.2930   26.8350   13.8580 C   0  0  0  0  0  0  0  0  0  0  0  0
   26.7190   26.6470   15.1250 C   0  0  0  0  0  0  0  0  0  0  0  0
   27.0220   27.4970   16.1920 C   0  0  0  0  0  0  0  0  0  0  0  0
   27.9210   28.5490   16.0320 C   0  0  0  0  0  0  0  0  0  0  0  0
   28.5190   28.7410   14.7900 C   0  0  0  0  0  0  0  0  0  0  0  0
   28.2110   27.8890   13.7210 C   0  0  0  0  0  0  0  0  0  0  0  0
   28.1250   29.3020   17.1530 O   0  0  0  0  0  0  0  0  0  0  0  0
   28.4660   28.6080   18.3470 C   0  0  0  0  0  0  0  0  0  0  0  0
   25.0270   24.1240   11.6810 S   0  0  0  0  0  6  0  0  0  0  0  0
   25.4770   22.7960   11.2920 O   0  0  0  0  0  0  0  0  0  0  0  0
   24.9810   25.1820   10.6950 O   0  0  0  0  0  0  0  0  0  0  0  0
   23.4800   24.0250   12.5130 C   0  0  0  0  0  0  0  0  0  0  0  0
   23.4600   24.0330   13.9110 C   0  0  0  0  0  0  0  0  0  0  0  0
   22.2380   23.9490   14.5770 C   0  0  0  0  0  0  0  0  0  0  0  0
   21.0500   23.8660   13.8490 C   0  0  0  0  0  0  0  0  0  0  0  0
   21.0770   23.8720   12.4540 C   0  0  0  0  0  0  0  0  0  0  0  0
   22.2940   23.9560   11.7770 C   0  0  0  0  0  0  0  0  0  0  0  0
   28.6400   24.0860   13.6170 C   0  0  0  0  0  0  0  0  0  0  0  0
   28.0040   23.0180   14.3260 O   0  0  0  0  0  0  0  0  0  0  0  0
   28.1140   24.1740   11.1510 C   0  0  0  0  0  0  0  0  0  0  0  0
   28.4820   22.7470   11.0450 N   0  0  0  0  0  4  0  0  0  0  0  0
   26.7988   26.7861   12.0634 H   0  0  0  0  0  0  0  0  0  0  0  0
   25.6171   24.2245   13.8045 H   0  0  0  0  0  0  0  0  0  0  0  0
   26.0171   25.8145   15.2810 H   0  0  0  0  0  0  0  0  0  0  0  0
   26.5451   27.3335   17.1696 H   0  0  0  0  0  0  0  0  0  0  0  0
   29.2352   29.5636   14.6472 H   0  0  0  0  0  0  0  0  0  0  0  0
   28.7009   28.0499   12.7494 H   0  0  0  0  0  0  0  0  0  0  0  0
   28.1700   29.2104   19.2185 H   0  0  0  0  0  0  0  0  0  0  0  0
   27.9397   27.6424   18.3729 H   0  0  0  0  0  0  0  0  0  0  0  0
   29.5519   28.4346   18.3729 H   0  0  0  0  0  0  0  0  0  0  0  0
   24.3989   24.1048   14.4797 H   0  0  0  0  0  0  0  0  0  0  0  0
   22.2101   23.9481   15.6766 H   0  0  0  0  0  0  0  0  0  0  0  0
   20.0879   23.7955   14.3776 H   0  0  0  0  0  0  0  0  0  0  0  0
   20.1366   23.8104   11.8867 H   0  0  0  0  0  0  0  0  0  0  0  0
   22.3197   23.9678   10.6774 H   0  0  0  0  0  0  0  0  0  0  0  0
   29.5679   23.7255   13.1490 H   0  0  0  0  0  0  0  0  0  0  0  0
   28.8968   24.9065   14.3032 H   0  0  0  0  0  0  0  0  0  0  0  0
   28.0939   23.1690   15.3003 H   0  0  0  0  0  0  0  0  0  0  0  0
   27.2865   24.3765   10.4551 H   0  0  0  0  0  0  0  0  0  0  0  0
   29.0076   24.7663   10.9046 H   0  0  0  0  0  0  0  0  0  0  0  0
   28.5849   22.3479   11.9890 H   0  0  0  0  0  0  0  0  0  0  0  0
   27.7445   22.2391   10.5361 H   0  0  0  0  0  0  0  0  0  0  0  0
   29.3732   22.6591   10.5361 H   0  0  0  0  0  0  0  0  0  0  0  0
  2  1  1  0
  3  2  1  0
  3  1  1  0
  4  2  1  0
  5  4  2  0
  6  5  1  0
  7  6  2  0
  8  7  1  0
  9  4  1  0
  9  8  2  0
 10  7  1  0
 11 10  1  0
 12  3  1  0
 13 12  2  0
 14 12  2  0
 15 12  1  0
 16 15  2  0
 17 16  1  0
 18 17  2  0
 19 18  1  0
 20 19  2  0
 20 15  1  0
  1 21  1  1
 22 21  1  0
 23  1  1  0
 24 23  1  0
  2 25  1  6
  3 26  1  1
  5 27  1  0
  6 28  1  0
  8 29  1  0
  9 30  1  0
 11 31  1  0
 11 32  1  0
 11 33  1  0
 16 34  1  0
 17 35  1  0
 18 36  1  0
 19 37  1  0
 20 38  1  0
 21 39  1  0
 21 40  1  0
 22 41  1  0
 23 42  1  0
 23 43  1  0
 24 44  1  0
 24 45  1  0
 24 46  1  0
M  CHG  1  24   1
M  END
$$$$
=
     RDKit          3D

 44 46  0  0  0  0  0  0  0  0999 V2000
   13.5390   14.3900    4.0290 C   0  0  0  0  0  0  0  0  0  0  0  0
   14.2000   15.4300    4.5580 N   0  0  0  0  0  0  0  0  0  0  0  0
   15.5380   15.4580    4.4420 C   0  0  0  0  0  0  0  0  0  0  0  0
   16.2140   14.4360    3.7990 C   0  0  0  0  0  0  0  0  0  0  0  0
   15.4620   13.3960    3.2880 C   0  0  0  0  0  0  0  0  0  0  0  0
   14.1200   13.3590    3.3950 N   0  0  0  0  0  0  0  0  0  0  0  0
   16.1320   12.2610    2.5720 C   0  0  0  0  0  0  0  0  0  0  0  0
   16.2930   16.5380    4.9380 N   0  0  0  0  0  0  0  0  0  0  0  0
   17.5970   16.4720    5.2980 C   0  0  0  0  0  0  0  0  0  0  0  0
   18.5370   17.9260    5.2740 S   0  0  0  0  0  0  0  0  0  0  0  0
   19.8950   17.0630    5.8490 C   0  0  0  0  0  0  0  0  0  0  0  0
   19.5670   15.7370    6.0370 C   0  0  0  0  0  0  0  0  0  0  0  0
   18.2570   15.4170    5.7260 N   0  0  0  0  0  0  0  0  0  0  0  0
   20.4580   14.6620    6.5370 C   0  0  0  0  0  0  0  0  0  0  0  0
    9.2450   13.2620    6.1840 C   0  0  0  0  0  0  0  0  0  0  0  0
    9.4890   13.4210    7.3830 O   0  0  0  0  0  0  0  0  0  0  0  0
   10.1440   13.5140    5.1870 N   0  0  0  0  0  0  0  0  0  0  0  0
    9.9530   13.3420    3.7520 C   0  0  0  0  0  0  0  0  0  0  0  0
   11.3490   13.4600    3.1570 C   0  0  0  0  0  0  0  0  0  0  0  0
   12.0460   14.4260    4.1190 C   0  0  1  0  0  0  0  0  0  0  0  0
   11.4960   13.9980    5.4770 C   0  0  0  0  0  0  0  0  0  0  0  0
    7.8610   12.7560    5.7910 C   0  0  0  0  0  0  0  0  0  0  0  0
    7.5510   11.5080    6.5610 N   0  0  0  0  0  4  0  0  0  0  0  0
   17.3093   14.4512    3.6985 H   0  0  0  0  0  0  0  0  0  0  0  0
   16.5474   11.5572    3.3083 H   0  0  0  0  0  0  0  0  0  0  0  0
   15.3965   11.7401    1.9413 H   0  0  0  0  0  0  0  0  0  0  0  0
   16.9434   12.6533    1.9413 H   0  0  0  0  0  0  0  0  0  0  0  0
   15.8178   17.4467    5.0343 H   0  0  0  0  0  0  0  0  0  0  0  0
   20.8856   17.5010    6.0410 H   0  0  0  0  0  0  0  0  0  0  0  0
   20.4552   14.6654    7.6370 H   0  0  0  0  0  0  0  0  0  0  0  0
   20.0983   13.6885    6.1724 H   0  0  0  0  0  0  0  0  0  0  0  0
   21.4813   14.8348    6.1724 H   0  0  0  0  0  0  0  0  0  0  0  0
    9.5212   12.3540    3.5342 H   0  0  0  0  0  0  0  0  0  0  0  0
    9.2590   14.0858    3.3334 H   0  0  0  0  0  0  0  0  0  0  0  0
   11.8560   12.4840    3.1388 H   0  0  0  0  0  0  0  0  0  0  0  0
   11.3501   13.8076    2.1134 H   0  0  0  0  0  0  0  0  0  0  0  0
   11.8401   15.4824    3.8917 H   0  0  0  0  0  0  0  0  0  0  0  0
   11.4635   14.8515    6.1702 H   0  0  0  0  0  0  0  0  0  0  0  0
   12.1208   13.2321    5.9597 H   0  0  0  0  0  0  0  0  0  0  0  0
    7.1096   13.5257    6.0213 H   0  0  0  0  0  0  0  0  0  0  0  0
    7.8417   12.5375    4.7131 H   0  0  0  0  0  0  0  0  0  0  0  0
    7.6003   11.7063    7.5705 H   0  0  0  0  0  0  0  0  0  0  0  0
    6.6037   11.1828    6.3208 H   0  0  0  0  0  0  0  0  0  0  0  0
    8.2360   10.7773    6.3208 H   0  0  0  0  0  0  0  0  0  0  0  0
  2  1  2  0
  3  2  1  0
  4  3  2  0
  5  4  1  0
  6  5  2  0
  6  1  1  0
  7  5  1  0
  8  3  1  0
  9  8  1  0
 10  9  1  0
 11 10  1  0
 12 11  2  0
 13 12  1  0
 13  9  2  0
 14 12  1  0
 16 15  2  0
 17 15  1  0
 18 17  1  0
 19 18  1  0
 20 19  1  0
 20  1  1  0
 21 17  1  0
 21 20  1  0
 22 15  1  0
 23 22  1  0
  4 24  1  0
  7 25  1  0
  7 26  1  0
  7 27  1  0
  8 28  1  0
 11 29  1  0
 14 30  1  0
 14 31  1  0
 14 32  1  0
 18 33  1  0
 18 34  1  0
 19 35  1  0
 19 36  1  0
 20 37  1  6
 21 38  1  0
 21 39  1  0
 22 40  1  0
 22 41  1  0
 23 42  1  0
 23 43  1  0
 23 44  1  0
M  CHG  1  23   1
M  END
$$$$
=
     RDKit          3D

 27 29  0  0  0  0  0  0  0  0999 V2000
   23.4400   18.6340    5.4290 N   0  0  0  0  0  0  0  0  0  0  0  0
   22.1840   18.1500    5.2850 C   0  0  0  0  0  0  0  0  0  0  0  0
   21.9830   16.9870    4.7600 N   0  0  0  0  0  0  0  0  0  0  0  0
   20.6580   16.5480    4.6400 C   0  0  0  0  0  0  0  0  0  0  0  0
   20.5010   15.3330    4.0750 N   0  0  0  0  0  0  0  0  0  0  0  0
   19.2140   14.9040    3.9570 C   0  0  0  0  0  0  0  0  0  0  0  0
   18.0990   15.6420    4.3680 C   0  0  0  0  0  0  0  0  0  0  0  0
   18.2680   16.8630    4.9400 N   0  0  0  0  0  0  0  0  0  0  0  0
   19.5570   17.2820    5.0590 C   0  0  0  0  0  0  0  0  0  0  0  0
   19.8380   18.5970    5.6680 C   0  0  0  0  0  0  0  0  0  0  0  0
   18.9690   19.3360    6.1170 O   0  0  0  0  0  0  0  0  0  0  0  0
   21.1670   18.9520    5.7130 N   0  0  0  0  0  0  0  0  0  0  0  0
   16.7050   15.1700    4.2310 C   0  0  0  0  0  0  0  0  0  0  0  0
   16.4030   14.0540    3.4270 C   0  0  0  0  0  0  0  0  0  0  0  0
   15.0930   13.5900    3.2760 C   0  0  0  0  0  0  0  0  0  0  0  0
   14.0480   14.2330    3.9320 C   0  0  0  0  0  0  0  0  0  0  0  0
   14.3150   15.3330    4.7410 C   0  0  0  0  0  0  0  0  0  0  0  0
   15.6280   15.7940    4.8910 C   0  0  0  0  0  0  0  0  0  0  0  0
   23.5891   19.5626    5.8489 H   0  0  0  0  0  0  0  0  0  0  0  0
   24.2466   18.0736    5.1186 H   0  0  0  0  0  0  0  0  0  0  0  0
   19.0401   13.9141    3.5100 H   0  0  0  0  0  0  0  0  0  0  0  0
   21.4081   19.8787    6.0926 H   0  0  0  0  0  0  0  0  0  0  0  0
   17.2191   13.5338    2.9042 H   0  0  0  0  0  0  0  0  0  0  0  0
   14.8885   12.7170    2.6389 H   0  0  0  0  0  0  0  0  0  0  0  0
   13.0155   13.8733    3.8116 H   0  0  0  0  0  0  0  0  0  0  0  0
   13.4919   15.8418    5.2642 H   0  0  0  0  0  0  0  0  0  0  0  0
   15.8232   16.6620    5.5380 H   0  0  0  0  0  0  0  0  0  0  0  0
  2  1  1  0
  3  2  2  0
  4  3  1  0
  5  4  2  0
  6  5  1  0
  7  6  2  0
  8  7  1  0
  9  8  2  0
  9  4  1  0
 10  9  1  0
 11 10  2  0
 12 10  1  0
 12  2  1  0
 13  7  1  0
 14 13  2  0
 15 14  1  0
 16 15  2  0
 17 16  1  0
 18 17  2  0
 18 13  1  0
  1 19  1  0
  1 20  1  0
  6 21  1  0
 12 22  1  0
 14 23  1  0
 15 24  1  0
 16 25  1  0
 17 26  1  0
 18 27  1  0
M  END
$$$$
=
     RDKit          3D

 43 44  0  0  0  0  0  0  0  0999 V2000
   16.4320   15.1250    3.4050 N   0  0  0  0  0  0  0  0  0  0  0  0
   21.2400   16.0800    6.1970 C   0  0  0  0  0  0  0  0  0  0  0  0
   21.4140   15.7030    7.3500 O   0  0  0  0  0  0  0  0  0  0  0  0
   20.0190   16.0070    5.5450 N   0  0  0  0  0  0  0  0  0  0  0  0
   19.7980   16.4950    4.1880 C   0  0  0  0  0  0  0  0  0  0  0  0
   18.9100   15.5540    3.3800 C   0  0  0  0  0  0  0  0  0  0  0  0
   17.6850   15.0750    4.1670 C   0  0  0  0  0  0  0  0  0  0  0  0
   17.5490   15.6850    5.5610 C   0  0  0  0  0  0  0  0  0  0  0  0
   18.8670   15.5470    6.3110 C   0  0  0  0  0  0  0  0  0  0  0  0
   22.2180   16.6150    5.4180 O   0  0  0  0  0  0  0  0  0  0  0  0
   22.5790   18.8760    4.6290 C   0  0  0  0  0  0  0  0  0  0  0  0
   22.6870   17.9160    5.8000 C   0  0  0  0  0  0  0  0  0  0  0  0
   15.3760   14.2060    3.4660 C   0  0  0  0  0  0  0  0  0  0  0  0
   15.4620   12.8660    3.0910 C   0  0  0  0  0  0  0  0  0  0  0  0
   14.3610   12.0140    3.2100 C   0  0  0  0  0  0  0  0  0  0  0  0
   13.1520   12.4920    3.7070 C   0  0  0  0  0  0  0  0  0  0  0  0
   13.0120   13.8400    4.0560 C   0  0  0  0  0  0  0  0  0  0  0  0
   14.1000   14.7110    3.8540 C   0  0  0  0  0  0  0  0  0  0  0  0
   11.6940   14.3270    4.5900 C   0  0  0  0  0  0  0  0  0  0  0  0
   14.0120   16.0870    4.2130 N   0  0  0  0  0  0  0  0  0  0  0  0
   16.3167   15.9181    2.7580 H   0  0  0  0  0  0  0  0  0  0  0  0
   19.3151   17.4820    4.2397 H   0  0  0  0  0  0  0  0  0  0  0  0
   20.7746   16.5558    3.6855 H   0  0  0  0  0  0  0  0  0  0  0  0
   18.5649   16.0827    2.4793 H   0  0  0  0  0  0  0  0  0  0  0  0
   19.5096   14.6673    3.1267 H   0  0  0  0  0  0  0  0  0  0  0  0
   17.8906   14.0082    4.3390 H   0  0  0  0  0  0  0  0  0  0  0  0
   17.2893   16.7501    5.4706 H   0  0  0  0  0  0  0  0  0  0  0  0
   16.7576   15.1581    6.1142 H   0  0  0  0  0  0  0  0  0  0  0  0
   18.8051   16.1379    7.2367 H   0  0  0  0  0  0  0  0  0  0  0  0
   19.0165   14.4758    6.5113 H   0  0  0  0  0  0  0  0  0  0  0  0
   22.4635   19.9028    5.0061 H   0  0  0  0  0  0  0  0  0  0  0  0
   23.4901   18.8108    4.0162 H   0  0  0  0  0  0  0  0  0  0  0  0
   21.7051   18.6100    4.0162 H   0  0  0  0  0  0  0  0  0  0  0  0
   23.7382   17.8451    6.1162 H   0  0  0  0  0  0  0  0  0  0  0  0
   22.0701   18.2909    6.6300 H   0  0  0  0  0  0  0  0  0  0  0  0
   16.4106   12.4737    2.6956 H   0  0  0  0  0  0  0  0  0  0  0  0
   14.4502   10.9597    2.9092 H   0  0  0  0  0  0  0  0  0  0  0  0
   12.3008   11.8056    3.8263 H   0  0  0  0  0  0  0  0  0  0  0  0
   11.7181   14.3181    5.6897 H   0  0  0  0  0  0  0  0  0  0  0  0
   11.5110   15.3521    4.2355 H   0  0  0  0  0  0  0  0  0  0  0  0
   10.8884   13.6672    4.2355 H   0  0  0  0  0  0  0  0  0  0  0  0
   14.8163   16.7118    4.0592 H   0  0  0  0  0  0  0  0  0  0  0  0
   13.1441   16.4569    4.6264 H   0  0  0  0  0  0  0  0  0  0  0  0
  3  2  2  0
  4  2  1  0
  5  4  1  0
  6  5  1  0
  7  6  1  0
  7  1  1  0
  8  7  1  0
  9  8  1  0
  9  4  1  0
 10  2  1  0
 12 11  1  0
 12 10  1  0
 13  1  1  0
 14 13  2  0
 15 14  1  0
 16 15  2  0
 17 16  1  0
 18 17  2  0
 18 13  1  0
 19 17  1  0
 20 18  1  0
  1 21  1  0
  5 22  1  0
  5 23  1  0
  6 24  1  0
  6 25  1  0
  7 26  1  0
  8 27  1  0
  8 28  1  0
  9 29  1  0
  9 30  1  0
 11 31  1  0
 11 32  1  0
 11 33  1  0
 12 34  1  0
 12 35  1  0
 14 36  1  0
 15 37  1  0
 16 38  1  0
 19 39  1  0
 19 40  1  0
 19 41  1  0
 20 42  1  0
 20 43  1  0
M  END
$$$$
=
     RDKit          3D

 41 41  0  0  0  0  0  0  0  0999 V2000
   19.7020   14.9020    5.3280 C   0  0  2  0  0  0  0  0  0  0  0  0
   19.3620   14.1310    6.4990 O   0  0  0  0  0  0  0  0  0  0  0  0
   19.4390   16.3970    5.5480 C   0  0  0  0  0  0  0  0  0  0  0  0
   20.7210   17.9930    4.0400 C   0  0  0  0  0  0  0  0  0  0  0  0
   21.8680   18.7410    3.7610 C   0  0  0  0  0  0  0  0  0  0  0  0
   22.9410   18.7470    4.6560 C   0  0  0  0  0  0  0  0  0  0  0  0
   22.8770   18.0060    5.8330 C   0  0  0  0  0  0  0  0  0  0  0  0
   21.7400   17.2520    6.1170 C   0  0  0  0  0  0  0  0  0  0  0  0
   20.6560   17.2340    5.2250 C   0  0  0  0  0  0  0  0  0  0  0  0
   19.8510   17.4890    1.8820 C   0  0  0  0  0  0  0  0  0  0  0  0
   19.6210   17.9160    3.2230 O   0  0  0  0  0  0  0  0  0  0  0  0
   18.8310   14.3580    4.1860 C   0  0  0  0  0  0  0  0  0  0  0  0
   17.7700   15.3910    3.9120 N   0  0  0  0  0  4  0  0  0  0  0  0
   16.4010   14.8540    3.7000 C   0  0  0  0  0  0  0  0  0  0  0  0
   15.3950   15.5810    4.6000 C   0  0  0  0  0  0  0  0  0  0  0  0
   13.9830   14.9980    4.4940 C   0  0  0  0  0  0  0  0  0  0  0  0
   15.8720   15.5200    6.0530 C   0  0  0  0  0  0  0  0  0  0  0  0
   20.7730   14.8074    5.0955 H   0  0  0  0  0  0  0  0  0  0  0  0
   19.5899   14.6478    7.3120 H   0  0  0  0  0  0  0  0  0  0  0  0
   18.6080   16.7117    4.8996 H   0  0  0  0  0  0  0  0  0  0  0  0
   19.1913   16.5484    6.6090 H   0  0  0  0  0  0  0  0  0  0  0  0
   21.9264   19.3278    2.8324 H   0  0  0  0  0  0  0  0  0  0  0  0
   23.8398   19.3395    4.4298 H   0  0  0  0  0  0  0  0  0  0  0  0
   23.7220   18.0157    6.5371 H   0  0  0  0  0  0  0  0  0  0  0  0
   21.6915   16.6666    7.0470 H   0  0  0  0  0  0  0  0  0  0  0  0
   20.3726   16.5206    1.8899 H   0  0  0  0  0  0  0  0  0  0  0  0
   18.8882   17.3826    1.3608 H   0  0  0  0  0  0  0  0  0  0  0  0
   20.4696   18.2344    1.3608 H   0  0  0  0  0  0  0  0  0  0  0  0
   19.4438   14.1980    3.2866 H   0  0  0  0  0  0  0  0  0  0  0  0
   18.3788   13.3939    4.4618 H   0  0  0  0  0  0  0  0  0  0  0  0
   17.7383   16.0354    4.7149 H   0  0  0  0  0  0  0  0  0  0  0  0
   18.0375   15.8465    3.0278 H   0  0  0  0  0  0  0  0  0  0  0  0
   16.1148   14.9970    2.6476 H   0  0  0  0  0  0  0  0  0  0  0  0
   16.3954   13.7832    3.9518 H   0  0  0  0  0  0  0  0  0  0  0  0
   15.3416   16.6251    4.2580 H   0  0  0  0  0  0  0  0  0  0  0  0
   13.5785   14.8310    5.5032 H   0  0  0  0  0  0  0  0  0  0  0  0
   13.3353   15.7023    3.9513 H   0  0  0  0  0  0  0  0  0  0  0  0
   14.0208   14.0419    3.9513 H   0  0  0  0  0  0  0  0  0  0  0  0
   15.0097   15.6303    6.7269 H   0  0  0  0  0  0  0  0  0  0  0  0
   16.3607   14.5521    6.2382 H   0  0  0  0  0  0  0  0  0  0  0  0
   16.5885   16.3338    6.2382 H   0  0  0  0  0  0  0  0  0  0  0  0
  2  1  1  0
  3  1  1  0
  5  4  2  0
  6  5  1  0
  7  6  2  0
  8  7  1  0
  9  4  1  0
  9  8  2  0
  9  3  1  0
 11 10  1  0
 11  4  1  0
 12  1  1  0
 13 12  1  0
 14 13  1  0
 15 14  1  0
 16 15  1  0
 17 15  1  0
  1 18  1  6
  2 19  1  0
  3 20  1  0
  3 21  1  0
  5 22  1  0
  6 23  1  0
  7 24  1  0
  8 25  1  0
 10 26  1  0
 10 27  1  0
 10 28  1  0
 12 29  1  0
 12 30  1  0
 13 31  1  0
 13 32  1  0
 14 33  1  0
 14 34  1  0
 15 35  1  0
 16 36  1  0
 16 37  1  0
 16 38  1  0
 17 39  1  0
 17 40  1  0
 17 41  1  0
M  CHG  1  13   1
M  END
$$$$
=
     RDKit          3D

 24 25  0  0  0  0  0  0  0  0999 V2000
   13.9190   13.7810    3.8950 C   0  0  0  0  0  0  0  0  0  0  0  0
   14.2500   12.7860    2.9760 C   0  0  0  0  0  0  0  0  0  0  0  0
   15.9330   12.7850    2.5480 S   0  0  0  0  0  0  0  0  0  0  0  0
   16.2000   14.0910    3.5520 C   0  0  0  0  0  0  0  0  0  0  0  0
   15.0930   14.5100    4.1820 C   0  0  0  0  0  0  0  0  0  0  0  0
   15.2850   15.6130    5.0270 C   0  0  0  0  0  0  0  0  0  0  0  0
   16.6240   15.9930    4.9920 C   0  0  0  0  0  0  0  0  0  0  0  0
   17.5600   14.9790    3.9340 S   0  0  0  0  0  0  0  0  0  0  0  0
   17.2990   17.1090    5.7140 C   0  0  0  0  0  0  0  0  0  0  0  0
   12.5550   14.0030    4.4620 C   0  0  0  0  0  0  0  0  0  0  0  0
   11.4620   13.5790    3.4810 C   0  0  0  0  0  0  0  0  0  0  0  0
   10.1250   13.9870    3.9850 N   0  0  0  0  0  4  0  0  0  0  0  0
   13.5195   12.0742    2.5641 H   0  0  0  0  0  0  0  0  0  0  0  0
   14.5006   16.1013    5.6238 H   0  0  0  0  0  0  0  0  0  0  0  0
   17.2051   16.9537    6.7989 H   0  0  0  0  0  0  0  0  0  0  0  0
   18.3635   17.1336    5.4379 H   0  0  0  0  0  0  0  0  0  0  0  0
   16.8265   18.0632    5.4379 H   0  0  0  0  0  0  0  0  0  0  0  0
   12.4526   13.4154    5.3863 H   0  0  0  0  0  0  0  0  0  0  0  0
   12.4374   15.0777    4.6647 H   0  0  0  0  0  0  0  0  0  0  0  0
   11.6436   14.0577    2.5074 H   0  0  0  0  0  0  0  0  0  0  0  0
   11.4838   12.4844    3.3747 H   0  0  0  0  0  0  0  0  0  0  0  0
   10.1311   13.9851    5.0150 H   0  0  0  0  0  0  0  0  0  0  0  0
    9.9040   14.9337    3.6447 H   0  0  0  0  0  0  0  0  0  0  0  0
    9.4131   13.3250    3.6447 H   0  0  0  0  0  0  0  0  0  0  0  0
  2  1  2  0
  3  2  1  0
  4  3  1  0
  5  4  2  0
  5  1  1  0
  6  5  1  0
  7  6  2  0
  8  4  1  0
  8  7  1  0
  9  7  1  0
 10  1  1  0
 11 10  1  0
 12 11  1  0
  2 13  1  0
  6 14  1  0
  9 15  1  0
  9 16  1  0
  9 17  1  0
 10 18  1  0
 10 19  1  0
 11 20  1  0
 11 21  1  0
 12 22  1  0
 12 23  1  0
 12 24  1  0
M  CHG  1  12   1
M  END
$$$$
=
     RDKit          3D

 30 32  0  0  0  0  0  0  0  0999 V2000
   17.9090   16.4880    4.9270 C   0  0  0  0  0  0  0  0  0  0  0  0
   18.3410   15.4300    4.2790 N   0  0  0  0  0  0  0  0  0  0  0  0
   17.2660   14.6100    3.9270 C   0  0  0  0  0  0  0  0  0  0  0  0
   16.0070   15.0790    4.3070 C   0  0  0  0  0  0  0  0  0  0  0  0
   16.2130   16.5740    5.1520 S   0  0  0  0  0  0  0  0  0  0  0  0
   14.8320   14.3530    3.9920 C   0  0  0  0  0  0  0  0  0  0  0  0
   13.5370   14.7840    4.3580 C   0  0  0  0  0  0  0  0  0  0  0  0
   12.4290   14.0180    4.0080 C   0  0  0  0  0  0  0  0  0  0  0  0
   12.6100   12.8350    3.3000 C   0  0  0  0  0  0  0  0  0  0  0  0
   13.8970   12.4190    2.9430 C   0  0  0  0  0  0  0  0  0  0  0  0
   15.0250   13.1560    3.2760 C   0  0  0  0  0  0  0  0  0  0  0  0
   16.2320   12.7040    2.9040 N   0  0  0  0  0  0  0  0  0  0  0  0
   17.3530   13.3860    3.2230 C   0  0  0  0  0  0  0  0  0  0  0  0
   18.5670   12.8480    2.8110 N   0  0  0  0  0  0  0  0  0  0  0  0
   18.8040   17.5660    5.4590 C   0  0  0  0  0  0  0  0  0  0  0  0
   21.1270   18.4470    4.8910 C   0  0  0  0  0  0  0  0  0  0  0  0
   19.7220   18.1520    4.3840 C   0  0  0  0  0  0  0  0  0  0  0  0
   13.4051   15.7218    4.9176 H   0  0  0  0  0  0  0  0  0  0  0  0
   11.4175   14.3460    4.2894 H   0  0  0  0  0  0  0  0  0  0  0  0
   11.7388   12.2246    3.0199 H   0  0  0  0  0  0  0  0  0  0  0  0
   14.0186   11.4806    2.3821 H   0  0  0  0  0  0  0  0  0  0  0  0
   19.4475   13.3345    3.0323 H   0  0  0  0  0  0  0  0  0  0  0  0
   18.5859   11.9630    2.2844 H   0  0  0  0  0  0  0  0  0  0  0  0
   18.1786   18.3738    5.8669 H   0  0  0  0  0  0  0  0  0  0  0  0
   19.4425   17.1168    6.2339 H   0  0  0  0  0  0  0  0  0  0  0  0
   21.1274   18.4471    5.9910 H   0  0  0  0  0  0  0  0  0  0  0  0
   21.8189   17.6745    4.5241 H   0  0  0  0  0  0  0  0  0  0  0  0
   21.4498   19.4325    4.5241 H   0  0  0  0  0  0  0  0  0  0  0  0
   19.2781   19.0897    4.0184 H   0  0  0  0  0  0  0  0  0  0  0  0
   19.8134   17.3998    3.5866 H   0  0  0  0  0  0  0  0  0  0  0  0
  2  1  2  0
  3  2  1  0
  4  3  2  0
  5  4  1  0
  5  1  1  0
  6  4  1  0
  7  6  2  0
  8  7  1  0
  9  8  2  0
 10  9  1  0
 11 10  2  0
 11  6  1  0
 12 11  1  0
 13 12  2  0
 13  3  1  0
 14 13  1  0
 15  1  1  0
 17 16  1  0
 17 15  1  0
  7 18  1  0
  8 19  1  0
  9 20  1  0
 10 21  1  0
 14 22  1  0
 14 23  1  0
 15 24  1  0
 15 25  1  0
 16 26  1  0
 16 27  1  0
 16 28  1  0
 17 29  1  0
 17 30  1  0
M  END
$$$$
=
     RDKit          3D

 38 40  0  0  0  0  0  0  0  0999 V2000
   14.7750   14.4910    3.9620 C   0  0  1  0  0  0  0  0  0  0  0  0
   16.0850   14.1610    3.2570 C   0  0  0  0  0  0  0  0  0  0  0  0
   17.1620   14.9840    3.9210 N   0  0  1  0  0  4  0  0  0  0  0  0
   16.6500   15.3290    5.3030 C   0  0  0  0  0  0  0  0  0  0  0  0
   15.1490   15.2230    5.2230 C   0  0  1  0  0  0  0  0  0  0  0  0
   14.3770   15.9520    4.1490 C   0  0  0  0  0  0  0  0  0  0  0  0
   13.7330   13.3960    3.9430 C   0  0  0  0  0  0  0  0  0  0  0  0
   14.0070   12.2260    3.0760 N   0  0  0  0  0  4  0  0  0  0  0  0
   18.5460   14.3940    3.8770 C   0  0  0  0  0  0  0  0  0  0  0  0
   19.5340   15.2140    4.6570 C   0  0  0  0  0  0  0  0  0  0  0  0
   19.9830   14.7790    5.9120 C   0  0  0  0  0  0  0  0  0  0  0  0
   20.9370   15.5150    6.6130 C   0  0  0  0  0  0  0  0  0  0  0  0
   21.4480   16.6930    6.0710 C   0  0  0  0  0  0  0  0  0  0  0  0
   20.9980   17.1570    4.8310 C   0  0  0  0  0  0  0  0  0  0  0  0
   20.0510   16.4060    4.1230 C   0  0  0  0  0  0  0  0  0  0  0  0
   21.5630   18.4230    4.2520 C   0  0  0  0  0  0  0  0  0  0  0  0
   16.3104   13.0893    3.3606 H   0  0  0  0  0  0  0  0  0  0  0  0
   16.0217   14.3899    2.1829 H   0  0  0  0  0  0  0  0  0  0  0  0
   17.3229   15.8464    3.3813 H   0  0  0  0  0  0  0  0  0  0  0  0
   17.0450   14.6203    6.0458 H   0  0  0  0  0  0  0  0  0  0  0  0
   16.9689   16.3350    5.6134 H   0  0  0  0  0  0  0  0  0  0  0  0
   14.9774   15.1746    6.3085 H   0  0  0  0  0  0  0  0  0  0  0  0
   13.3228   16.2198    4.3130 H   0  0  0  0  0  0  0  0  0  0  0  0
   14.5216   16.8803    3.5768 H   0  0  0  0  0  0  0  0  0  0  0  0
   13.6195   13.0272    4.9731 H   0  0  0  0  0  0  0  0  0  0  0  0
   12.8326   13.8637    3.5180 H   0  0  0  0  0  0  0  0  0  0  0  0
   14.2000   11.4017    3.6626 H   0  0  0  0  0  0  0  0  0  0  0  0
   13.1869   12.0398    2.4814 H   0  0  0  0  0  0  0  0  0  0  0  0
   14.8245   12.4233    2.4814 H   0  0  0  0  0  0  0  0  0  0  0  0
   18.5130   13.3798    4.3015 H   0  0  0  0  0  0  0  0  0  0  0  0
   18.8739   14.3763    2.8272 H   0  0  0  0  0  0  0  0  0  0  0  0
   19.5802   13.8519    6.3458 H   0  0  0  0  0  0  0  0  0  0  0  0
   21.2871   15.1655    7.5955 H   0  0  0  0  0  0  0  0  0  0  0  0
   22.2109   17.2619    6.6227 H   0  0  0  0  0  0  0  0  0  0  0  0
   19.7082   16.7537    3.1373 H   0  0  0  0  0  0  0  0  0  0  0  0
   21.8638   19.0969    5.0677 H   0  0  0  0  0  0  0  0  0  0  0  0
   22.4396   18.1835    3.6322 H   0  0  0  0  0  0  0  0  0  0  0  0
   20.7993   18.9155    3.6322 H   0  0  0  0  0  0  0  0  0  0  0  0
  2  1  1  0
  3  2  1  0
  4  3  1  0
  5  1  1  0
  5  4  1  0
  6  5  1  0
  6  1  1  0
  1  7  1  1
  8  7  1  0
  9  3  1  0
 10  9  1  0
 11 10  2  0
 12 11  1  0
 13 12  2  0
 14 13  1  0
 15 10  1  0
 15 14  2  0
 16 14  1  0
  2 17  1  0
  2 18  1  0
  3 19  1  6
  4 20  1  0
  4 21  1  0
  5 22  1  1
  6 23  1  0
  6 24  1  0
  7 25  1  0
  7 26  1  0
  8 27  1  0
  8 28  1  0
  8 29  1  0
  9 30  1  0
  9 31  1  0
 11 32  1  0
 12 33  1  0
 13 34  1  0
 15 35  1  0
 16 36  1  0
 16 37  1  0
 16 38  1  0
M  CHG  2   3   1   8   1
M  END
$$$$
=
     RDKit          3D

 58 58  0  0  0  0  0  0  0  0999 V2000
   16.6940   16.4390    5.6390 N   0  0  0  0  0  4  0  0  0  0  0  0
   18.0920   15.7920    5.4730 C   0  0  1  0  0  0  0  0  0  0  0  0
   17.9520   14.7050    4.4160 C   0  0  0  0  0  0  0  0  0  0  0  0
   19.0830   16.8990    5.0190 C   0  0  0  0  0  0  0  0  0  0  0  0
   18.6730   18.0680    5.0400 O   0  0  0  0  0  0  0  0  0  0  0  0
   20.3110   16.5040    4.4950 N   0  0  0  0  0  0  0  0  0  0  0  0
   21.3770   16.0060    5.4030 C   0  0  2  0  0  0  0  0  0  0  0  0
   20.9650   14.9620    6.4350 C   0  0  0  0  0  0  0  0  0  0  0  0
   22.0580   17.2010    6.0970 C   0  0  0  0  0  0  0  0  0  0  0  0
   22.6240   18.1900    5.0730 C   0  0  0  0  0  0  0  0  0  0  0  0
   21.5820   18.5960    4.0280 C   0  0  0  0  0  0  0  0  0  0  0  0
   20.8980   17.3570    3.4310 C   0  0  2  0  0  0  0  0  0  0  0  0
   19.9150   17.7210    2.3160 C   0  0  0  0  0  0  0  0  0  0  0  0
   15.5650   15.4510    5.6420 C   0  0  0  0  0  0  0  0  0  0  0  0
   14.6250   15.6480    4.4450 C   0  0  0  0  0  0  0  0  0  0  0  0
   13.3670   14.7710    4.5160 C   0  0  0  0  0  0  0  0  0  0  0  0
   13.3420   13.6710    3.4620 N   0  0  0  0  0  4  0  0  0  0  0  0
   15.3690   12.5300    2.5280 C   0  0  0  0  0  0  0  0  0  0  0  0
   14.3430   12.5400    3.6460 C   0  0  0  0  0  0  0  0  0  0  0  0
   11.9330   13.1520    3.1820 C   0  0  0  0  0  0  0  0  0  0  0  0
   10.8910   14.0470    3.8300 C   0  0  0  0  0  0  0  0  0  0  0  0
   16.6781   16.9528    6.5316 H   0  0  0  0  0  0  0  0  0  0  0  0
   16.5507   17.0552    4.8262 H   0  0  0  0  0  0  0  0  0  0  0  0
   18.4704   15.3501    6.4066 H   0  0  0  0  0  0  0  0  0  0  0  0
   17.8263   13.7292    4.9080 H   0  0  0  0  0  0  0  0  0  0  0  0
   17.0735   14.9150    3.7882 H   0  0  0  0  0  0  0  0  0  0  0  0
   18.8551   14.6855    3.7882 H   0  0  0  0  0  0  0  0  0  0  0  0
   22.0718   15.4633    4.7452 H   0  0  0  0  0  0  0  0  0  0  0  0
   21.1236   15.3639    7.4466 H   0  0  0  0  0  0  0  0  0  0  0  0
   19.9016   14.7142    6.3015 H   0  0  0  0  0  0  0  0  0  0  0  0
   21.5725   14.0548    6.3015 H   0  0  0  0  0  0  0  0  0  0  0  0
   21.3188   17.7194    6.7254 H   0  0  0  0  0  0  0  0  0  0  0  0
   22.8893   16.8201    6.7084 H   0  0  0  0  0  0  0  0  0  0  0  0
   22.9657   19.0918    5.6022 H   0  0  0  0  0  0  0  0  0  0  0  0
   23.4552   17.6960    4.5485 H   0  0  0  0  0  0  0  0  0  0  0  0
   20.8223   19.2330    4.5046 H   0  0  0  0  0  0  0  0  0  0  0  0
   22.0880   19.1438    3.2194 H   0  0  0  0  0  0  0  0  0  0  0  0
   21.6693   16.7451    2.9405 H   0  0  0  0  0  0  0  0  0  0  0  0
   18.9709   18.0706    2.7592 H   0  0  0  0  0  0  0  0  0  0  0  0
   20.3457   18.5193    1.6937 H   0  0  0  0  0  0  0  0  0  0  0  0
   19.7219   16.8348    1.6937 H   0  0  0  0  0  0  0  0  0  0  0  0
   15.9828   14.4342    5.6018 H   0  0  0  0  0  0  0  0  0  0  0  0
   14.9811   15.6053    6.5614 H   0  0  0  0  0  0  0  0  0  0  0  0
   14.3149   16.7029    4.4134 H   0  0  0  0  0  0  0  0  0  0  0  0
   15.1790   15.3541    3.5413 H   0  0  0  0  0  0  0  0  0  0  0  0
   13.3226   14.3033    5.5106 H   0  0  0  0  0  0  0  0  0  0  0  0
   12.5021   15.4241    4.3275 H   0  0  0  0  0  0  0  0  0  0  0  0
   13.6753   14.1561    2.6167 H   0  0  0  0  0  0  0  0  0  0  0  0
   16.3810   12.5201    2.9591 H   0  0  0  0  0  0  0  0  0  0  0  0
   15.2261   11.6332    1.9072 H   0  0  0  0  0  0  0  0  0  0  0  0
   15.2436   13.4294    1.9072 H   0  0  0  0  0  0  0  0  0  0  0  0
   13.8046   11.5808    3.6479 H   0  0  0  0  0  0  0  0  0  0  0  0
   14.8685   12.6909    4.6005 H   0  0  0  0  0  0  0  0  0  0  0  0
   11.7654   13.1316    2.0950 H   0  0  0  0  0  0  0  0  0  0  0  0
   11.8396   12.1398    3.6024 H   0  0  0  0  0  0  0  0  0  0  0  0
   10.9751   13.9748    4.9244 H   0  0  0  0  0  0  0  0  0  0  0  0
   11.0568   15.0886    3.5175 H   0  0  0  0  0  0  0  0  0  0  0  0
    9.8864   13.7259    3.5175 H   0  0  0  0  0  0  0  0  0  0  0  0
  2  1  1  0
  3  2  1  0
  4  2  1  0
  5  4  2  0
  6  4  1  0
  7  6  1  0
  8  7  1  0
  9  7  1  0
 10  9  1  0
 11 10  1  0
 12 11  1  0
 12  6  1  0
 13 12  1  0
 14  1  1  0
 15 14  1  0
 16 15  1  0
 17 16  1  0
 19 18  1  0
 19 17  1  0
 20 17  1  0
 21 20  1  0
  1 22  1  0
  1 23  1  0
  2 24  1  1
  3 25  1  0
  3 26  1  0
  3 27  1  0
  7 28  1  6
  8 29  1  0
  8 30  1  0
  8 31  1  0
  9 32  1  0
  9 33  1  0
 10 34  1  0
 10 35  1  0
 11 36  1  0
 11 37  1  0
 12 38  1  6
 13 39  1  0
 13 40  1  0
 13 41  1  0
 14 42  1  0
 14 43  1  0
 15 44  1  0
 15 45  1  0
 16 46  1  0
 16 47  1  0
 17 48  1  0
 18 49  1  0
 18 50  1  0
 18 51  1  0
 19 52  1  0
 19 53  1  0
 20 54  1  0
 20 55  1  0
 21 56  1  0
 21 57  1  0
 21 58  1  0
M  CHG  2   1   1  17   1
M  END
$$$$
=
     RDKit          3D

 25 25  0  0  0  0  0  0  0  0999 V2000
   20.0700   15.3320    4.0520 N   0  0  0  0  0  4  0  0  0  0  0  0
   20.9910   16.3520    4.6610 C   0  0  0  0  0  0  0  0  0  0  0  0
   20.4220   14.7900    6.5930 C   0  0  0  0  0  0  0  0  0  0  0  0
   20.9750   16.1500    6.1870 C   0  0  1  0  0  0  0  0  0  0  0  0
   22.3370   16.2420    6.6350 O   0  0  0  0  0  0  0  0  0  0  0  0
   18.8690   15.8550    3.3490 C   0  0  0  0  0  0  0  0  0  0  0  0
   17.6280   15.7560    4.1480 C   0  0  0  0  0  0  0  0  0  0  0  0
   17.2310   16.2780    5.3630 C   0  0  0  0  0  0  0  0  0  0  0  0
   15.9120   15.8090    5.5820 C   0  0  0  0  0  0  0  0  0  0  0  0
   15.5910   15.0340    4.4930 C   0  0  0  0  0  0  0  0  0  0  0  0
   16.6300   14.9930    3.6190 O   0  0  0  0  0  0  0  0  0  0  0  0
   20.6163   14.7843    3.3720 H   0  0  0  0  0  0  0  0  0  0  0  0
   19.7042   14.7879    4.8464 H   0  0  0  0  0  0  0  0  0  0  0  0
   22.0117   16.2116    4.2758 H   0  0  0  0  0  0  0  0  0  0  0  0
   20.6602   17.3693    4.4049 H   0  0  0  0  0  0  0  0  0  0  0  0
   20.3930   14.7187    7.6903 H   0  0  0  0  0  0  0  0  0  0  0  0
   19.4048   14.6729    6.1909 H   0  0  0  0  0  0  0  0  0  0  0  0
   21.0688   13.9963    6.1909 H   0  0  0  0  0  0  0  0  0  0  0  0
   20.3239   16.9129    6.6386 H   0  0  0  0  0  0  0  0  0  0  0  0
   22.3594   16.2435    7.6247 H   0  0  0  0  0  0  0  0  0  0  0  0
   19.0421   16.9134    3.1043 H   0  0  0  0  0  0  0  0  0  0  0  0
   18.7254   15.2372    2.4503 H   0  0  0  0  0  0  0  0  0  0  0  0
   17.8201   16.9273    6.0273 H   0  0  0  0  0  0  0  0  0  0  0  0
   15.2721   16.0226    6.4508 H   0  0  0  0  0  0  0  0  0  0  0  0
   14.6291   14.5199    4.3497 H   0  0  0  0  0  0  0  0  0  0  0  0
  2  1  1  0
  4  3  1  0
  4  2  1  0
  5  4  1  0
  6  1  1  0
  7  6  1  0
  8  7  2  0
  9  8  1  0
 10  9  2  0
 11 10  1  0
 11  7  1  0
  1 12  1  0
  1 13  1  0
  2 14  1  0
  2 15  1  0
  3 16  1  0
  3 17  1  0
  3 18  1  0
  4 19  1  1
  5 20  1  0
  6 21  1  0
  6 22  1  0
  8 23  1  0
  9 24  1  0
 10 25  1  0
M  CHG  1   1   1
M  END
$$$$
=
     RDKit          3D

 35 35  0  0  0  0  0  0  0  0999 V2000
   18.6430   15.8050    5.9200 C   0  0  2  0  0  0  0  0  0  0  0  0
   17.1470   15.7750    6.2550 C   0  0  0  0  0  0  0  0  0  0  0  0
   16.4940   15.2430    4.9820 C   0  0  2  0  0  0  0  0  0  0  0  0
   17.3400   15.8550    3.8790 C   0  0  0  0  0  0  0  0  0  0  0  0
   18.6660   15.9650    4.4710 N   0  0  0  0  0  0  0  0  0  0  0  0
   19.7440   16.3770    3.7240 C   0  0  0  0  0  0  0  0  0  0  0  0
   19.6910   16.5710    2.5220 O   0  0  0  0  0  0  0  0  0  0  0  0
   15.2120   15.6540    4.9210 F   0  0  0  0  0  0  0  0  0  0  0  0
   19.3940   14.5350    6.3720 C   0  0  0  0  0  0  0  0  0  0  0  0
   20.7780   14.8530    6.8200 N   0  0  0  0  0  4  0  0  0  0  0  0
   20.8490   16.5130    4.5000 O   0  0  0  0  0  0  0  0  0  0  0  0
   21.3780   17.8350    4.7990 C   0  0  0  0  0  0  0  0  0  0  0  0
   21.9160   18.5180    3.5380 C   0  0  0  0  0  0  0  0  0  0  0  0
   22.5540   17.5710    5.7530 C   0  0  0  0  0  0  0  0  0  0  0  0
   20.3430   18.7000    5.5280 C   0  0  0  0  0  0  0  0  0  0  0  0
   19.1652   16.6137    6.4524 H   0  0  0  0  0  0  0  0  0  0  0  0
   16.9500   15.1050    7.1049 H   0  0  0  0  0  0  0  0  0  0  0  0
   16.7592   16.7614    6.5493 H   0  0  0  0  0  0  0  0  0  0  0  0
   16.4592   14.1455    4.9171 H   0  0  0  0  0  0  0  0  0  0  0  0
   17.3600   15.2022    2.9939 H   0  0  0  0  0  0  0  0  0  0  0  0
   16.9490   16.8235    3.5339 H   0  0  0  0  0  0  0  0  0  0  0  0
   18.8454   14.0723    7.2056 H   0  0  0  0  0  0  0  0  0  0  0  0
   19.4566   13.8467    5.5163 H   0  0  0  0  0  0  0  0  0  0  0  0
   20.8124   14.8609    7.8494 H   0  0  0  0  0  0  0  0  0  0  0  0
   21.4278   14.1394    6.4602 H   0  0  0  0  0  0  0  0  0  0  0  0
   21.0512   15.7787    6.4602 H   0  0  0  0  0  0  0  0  0  0  0  0
   22.5731   19.3522    3.8248 H   0  0  0  0  0  0  0  0  0  0  0  0
   22.4862   17.7904    2.9418 H   0  0  0  0  0  0  0  0  0  0  0  0
   21.0751   18.9019    2.9418 H   0  0  0  0  0  0  0  0  0  0  0  0
   22.2065   17.6490    6.7937 H   0  0  0  0  0  0  0  0  0  0  0  0
   22.9518   16.5612    5.5740 H   0  0  0  0  0  0  0  0  0  0  0  0
   23.3453   18.3139    5.5740 H   0  0  0  0  0  0  0  0  0  0  0  0
   20.4738   18.5906    6.6147 H   0  0  0  0  0  0  0  0  0  0  0  0
   20.4823   19.7541    5.2462 H   0  0  0  0  0  0  0  0  0  0  0  0
   19.3303   18.3758    5.2462 H   0  0  0  0  0  0  0  0  0  0  0  0
  2  1  1  0
  3  2  1  0
  4  3  1  0
  5  4  1  0
  5  1  1  0
  6  5  1  0
  7  6  2  0
  8  3  1  0
  9  1  1  0
 10  9  1  0
 11  6  1  0
 12 11  1  0
 13 12  1  0
 14 12  1  0
 15 12  1  0
  1 16  1  1
  2 17  1  0
  2 18  1  0
  3 19  1  1
  4 20  1  0
  4 21  1  0
  9 22  1  0
  9 23  1  0
 10 24  1  0
 10 25  1  0
 10 26  1  0
 13 27  1  0
 13 28  1  0
 13 29  1  0
 14 30  1  0
 14 31  1  0
 14 32  1  0
 15 33  1  0
 15 34  1  0
 15 35  1  0
M  CHG  1  10   1
M  END
$$$$
=
     RDKit          3D

 37 38  0  0  0  0  0  0  0  0999 V2000
   16.4240   14.6300    3.9890 C   0  0  0  0  0  0  0  0  0  0  0  0
   15.4580   15.4240    4.6260 C   0  0  0  0  0  0  0  0  0  0  0  0
   14.1020   15.0770    4.5940 C   0  0  0  0  0  0  0  0  0  0  0  0
   13.6880   13.9210    3.9300 C   0  0  0  0  0  0  0  0  0  0  0  0
   14.6470   13.0850    3.3300 C   0  0  0  0  0  0  0  0  0  0  0  0
   15.9950   13.4690    3.3290 C   0  0  0  0  0  0  0  0  0  0  0  0
   19.5020   16.3800    3.4990 C   0  0  0  0  0  0  0  0  0  0  0  0
   20.0500   15.3240    4.2050 C   0  0  0  0  0  0  0  0  0  0  0  0
   18.9830   14.4490    4.5300 C   0  0  0  0  0  0  0  0  0  0  0  0
   17.8340   15.0130    4.0100 C   0  0  0  0  0  0  0  0  0  0  0  0
   18.1520   16.1850    3.3830 O   0  0  0  0  0  0  0  0  0  0  0  0
   20.0770   17.5660    2.9090 C   0  0  0  0  0  0  0  0  0  0  0  0
   20.1540   17.8130    1.7120 O   0  0  0  0  0  0  0  0  0  0  0  0
   20.5310   18.3920    3.9000 O   0  0  0  0  0  0  0  0  0  0  0  0
   22.3850   18.1590    5.4400 C   0  0  0  0  0  0  0  0  0  0  0  0
   21.9570   18.4910    4.0220 C   0  0  0  0  0  0  0  0  0  0  0  0
   14.2430   11.9800    2.5520 N   0  0  0  0  0  0  0  0  0  0  0  0
   12.3880   13.4870    3.8380 O   0  0  0  0  0  0  0  0  0  0  0  0
   11.3730   14.3710    4.3100 C   0  0  0  0  0  0  0  0  0  0  0  0
   10.0760   14.0100    3.6090 C   0  0  0  0  0  0  0  0  0  0  0  0
   15.7713   16.3338    5.1591 H   0  0  0  0  0  0  0  0  0  0  0  0
   13.3604   15.7175    5.0938 H   0  0  0  0  0  0  0  0  0  0  0  0
   16.7318   12.8470    2.7996 H   0  0  0  0  0  0  0  0  0  0  0  0
   21.1104   15.1891    4.4645 H   0  0  0  0  0  0  0  0  0  0  0  0
   19.0558   13.5039    5.0882 H   0  0  0  0  0  0  0  0  0  0  0  0
   21.7229   18.6726    6.1526 H   0  0  0  0  0  0  0  0  0  0  0  0
   22.3206   17.0722    5.5975 H   0  0  0  0  0  0  0  0  0  0  0  0
   23.4216   18.4916    5.5975 H   0  0  0  0  0  0  0  0  0  0  0  0
   22.4314   17.7852    3.3244 H   0  0  0  0  0  0  0  0  0  0  0  0
   22.2675   19.5191    3.7843 H   0  0  0  0  0  0  0  0  0  0  0  0
   14.9501   11.3716    2.1153 H   0  0  0  0  0  0  0  0  0  0  0  0
   13.2409   11.7815    2.4206 H   0  0  0  0  0  0  0  0  0  0  0  0
   11.2542   14.2568    5.3976 H   0  0  0  0  0  0  0  0  0  0  0  0
   11.6455   15.4153    4.0972 H   0  0  0  0  0  0  0  0  0  0  0  0
    9.3013   13.7944    4.3595 H   0  0  0  0  0  0  0  0  0  0  0  0
    9.7526   14.8523    2.9797 H   0  0  0  0  0  0  0  0  0  0  0  0
   10.2342   13.1218    2.9797 H   0  0  0  0  0  0  0  0  0  0  0  0
  2  1  2  0
  3  2  1  0
  4  3  2  0
  5  4  1  0
  6  5  2  0
  6  1  1  0
  8  7  2  0
  9  8  1  0
 10  9  2  0
 10  1  1  0
 11 10  1  0
 11  7  1  0
 12  7  1  0
 13 12  2  0
 14 12  1  0
 16 14  1  0
 16 15  1  0
 17  5  1  0
 18  4  1  0
 19 18  1  0
 20 19  1  0
  2 21  1  0
  3 22  1  0
  6 23  1  0
  8 24  1  0
  9 25  1  0
 15 26  1  0
 15 27  1  0
 15 28  1  0
 16 29  1  0
 16 30  1  0
 17 31  1  0
 17 32  1  0
 19 33  1  0
 19 34  1  0
 20 35  1  0
 20 36  1  0
 20 37  1  0
M  END
$$$$
=
     RDKit          3D

 36 36  0  0  0  0  0  0  0  0999 V2000
   19.1430   15.0640    3.1790 N   0  0  0  0  0  4  0  0  0  0  0  0
   19.3660   16.5220    3.4780 C   0  0  2  0  0  0  0  0  0  0  0  0
   19.6910   17.2650    2.1860 C   0  0  0  0  0  0  0  0  0  0  0  0
   20.4760   16.6640    4.4650 C   0  0  0  0  0  0  0  0  0  0  0  0
   20.7880   16.0280    5.6480 C   0  0  0  0  0  0  0  0  0  0  0  0
   21.9890   16.6210    6.1120 C   0  0  0  0  0  0  0  0  0  0  0  0
   22.3380   17.5780    5.1850 C   0  0  0  0  0  0  0  0  0  0  0  0
   21.4230   17.6060    4.1750 O   0  0  0  0  0  0  0  0  0  0  0  0
   23.4610   18.5340    5.0880 C   0  0  0  0  0  0  0  0  0  0  0  0
   18.0340   14.3850    3.8940 C   0  0  0  0  0  0  0  0  0  0  0  0
   16.6960   15.0190    3.5220 C   0  0  0  0  0  0  0  0  0  0  0  0
   15.8790   15.5850    4.6900 C   0  0  0  0  0  0  0  0  0  0  0  0
   17.1880   17.2520    6.1100 C   0  0  0  0  0  0  0  0  0  0  0  0
   16.6580   15.8320    5.9840 C   0  0  0  0  0  0  0  0  0  0  0  0
   18.9576   14.9800    2.1693 H   0  0  0  0  0  0  0  0  0  0  0  0
   19.9977   14.5927    3.5079 H   0  0  0  0  0  0  0  0  0  0  0  0
   18.4538   16.9580    3.9113 H   0  0  0  0  0  0  0  0  0  0  0  0
   20.1211   18.2484    2.4268 H   0  0  0  0  0  0  0  0  0  0  0  0
   20.4160   16.6813    1.5998 H   0  0  0  0  0  0  0  0  0  0  0  0
   18.7702   17.4011    1.5998 H   0  0  0  0  0  0  0  0  0  0  0  0
   20.2189   15.2220    6.1342 H   0  0  0  0  0  0  0  0  0  0  0  0
   22.5353   16.3667    7.0323 H   0  0  0  0  0  0  0  0  0  0  0  0
   23.7914   18.8153    6.0988 H   0  0  0  0  0  0  0  0  0  0  0  0
   24.2959   18.0652    4.5465 H   0  0  0  0  0  0  0  0  0  0  0  0
   23.1315   19.4330    4.5465 H   0  0  0  0  0  0  0  0  0  0  0  0
   18.0209   13.3208    3.6159 H   0  0  0  0  0  0  0  0  0  0  0  0
   18.1902   14.4898    4.9778 H   0  0  0  0  0  0  0  0  0  0  0  0
   16.8958   15.8417    2.8197 H   0  0  0  0  0  0  0  0  0  0  0  0
   16.0878   14.2067    3.0974 H   0  0  0  0  0  0  0  0  0  0  0  0
   15.4465   16.5435    4.3672 H   0  0  0  0  0  0  0  0  0  0  0  0
   15.1291   14.8175    4.9322 H   0  0  0  0  0  0  0  0  0  0  0  0
   17.2857   17.5138    7.1739 H   0  0  0  0  0  0  0  0  0  0  0  0
   18.1722   17.3205    5.6236 H   0  0  0  0  0  0  0  0  0  0  0  0
   16.4894   17.9486    5.6236 H   0  0  0  0  0  0  0  0  0  0  0  0
   15.9911   15.6322    6.8357 H   0  0  0  0  0  0  0  0  0  0  0  0
   17.5294   15.1608    5.9708 H   0  0  0  0  0  0  0  0  0  0  0  0
  2  1  1  0
  3  2  1  0
  4  2  1  0
  5  4  2  0
  6  5  1  0
  7  6  2  0
  8  4  1  0
  8  7  1  0
  9  7  1  0
 10  1  1  0
 11 10  1  0
 12 11  1  0
 14 12  1  0
 14 13  1  0
  1 15  1  0
  1 16  1  0
  2 17  1  1
  3 18  1  0
  3 19  1  0
  3 20  1  0
  5 21  1  0
  6 22  1  0
  9 23  1  0
  9 24  1  0
  9 25  1  0
 10 26  1  0
 10 27  1  0
 11 28  1  0
 11 29  1  0
 12 30  1  0
 12 31  1  0
 13 32  1  0
 13 33  1  0
 13 34  1  0
 14 35  1  0
 14 36  1  0
M  CHG  1   1   1
M  END
$$$$
=
     RDKit          3D

 33 34  0  0  0  0  0  0  0  0999 V2000
   21.3720   16.3110    6.0020 C   0  0  0  0  0  0  0  0  0  0  0  0
   20.6720   15.2450    6.5670 C   0  0  0  0  0  0  0  0  0  0  0  0
   19.5180   14.7470    5.9490 C   0  0  0  0  0  0  0  0  0  0  0  0
   19.0520   15.3210    4.7680 C   0  0  0  0  0  0  0  0  0  0  0  0
   19.7290   16.4270    4.2140 C   0  0  0  0  0  0  0  0  0  0  0  0
   20.9050   16.8850    4.8160 C   0  0  0  0  0  0  0  0  0  0  0  0
   17.9060   14.8920    4.0710 N   0  0  0  0  0  0  0  0  0  0  0  0
   16.5790   15.1960    4.3260 C   0  0  0  0  0  0  0  0  0  0  0  0
   16.1690   15.8840    5.2550 O   0  0  0  0  0  0  0  0  0  0  0  0
   15.6290   14.5400    3.3000 C   0  0  1  0  0  0  0  0  0  0  0  0
   16.1350   13.1550    2.9000 C   0  0  0  0  0  0  0  0  0  0  0  0
   14.8690   12.3440    2.7760 C   0  0  0  0  0  0  0  0  0  0  0  0
   13.9980   12.9730    3.8360 C   0  0  0  0  0  0  0  0  0  0  0  0
   14.2870   14.3710    3.7790 O   0  0  0  0  0  0  0  0  0  0  0  0
   19.3500   16.9060    2.9280 N   0  0  0  0  0  0  0  0  0  0  0  0
   22.9640   18.0710    5.8700 C   0  0  0  0  0  0  0  0  0  0  0  0
   22.5190   16.8720    6.4930 O   0  0  0  0  0  0  0  0  0  0  0  0
   21.0286   14.7925    7.5040 H   0  0  0  0  0  0  0  0  0  0  0  0
   18.9779   13.9001    6.3974 H   0  0  0  0  0  0  0  0  0  0  0  0
   21.4693   17.7067    4.3508 H   0  0  0  0  0  0  0  0  0  0  0  0
   18.0769   14.2714    3.2669 H   0  0  0  0  0  0  0  0  0  0  0  0
   15.6162   15.2345    2.4471 H   0  0  0  0  0  0  0  0  0  0  0  0
   16.6732   13.1940    1.9414 H   0  0  0  0  0  0  0  0  0  0  0  0
   16.8474   12.7320    3.6236 H   0  0  0  0  0  0  0  0  0  0  0  0
   14.4223   12.4481    1.7762 H   0  0  0  0  0  0  0  0  0  0  0  0
   15.0175   11.2617    2.9044 H   0  0  0  0  0  0  0  0  0  0  0  0
   12.9350   12.7900    3.6201 H   0  0  0  0  0  0  0  0  0  0  0  0
   14.1966   12.5530    4.8331 H   0  0  0  0  0  0  0  0  0  0  0  0
   19.8383   17.7132    2.5146 H   0  0  0  0  0  0  0  0  0  0  0  0
   18.5875   16.4453    2.4110 H   0  0  0  0  0  0  0  0  0  0  0  0
   23.2367   18.8058    6.6418 H   0  0  0  0  0  0  0  0  0  0  0  0
   23.8417   17.8546    5.2432 H   0  0  0  0  0  0  0  0  0  0  0  0
   22.1577   18.4797    5.2432 H   0  0  0  0  0  0  0  0  0  0  0  0
  2  1  2  0
  3  2  1  0
  4  3  2  0
  5  4  1  0
  6  1  1  0
  6  5  2  0
  7  4  1  0
  8  7  1  0
  9  8  2  0
 10  8  1  0
 11 10  1  0
 12 11  1  0
 13 12  1  0
 14 13  1  0
 14 10  1  0
 15  5  1  0
 17  1  1  0
 17 16  1  0
  2 18  1  0
  3 19  1  0
  6 20  1  0
  7 21  1  0
 10 22  1  6
 11 23  1  0
 11 24  1  0
 12 25  1  0
 12 26  1  0
 13 27  1  0
 13 28  1  0
 15 29  1  0
 15 30  1  0
 16 31  1  0
 16 32  1  0
 16 33  1  0
M  END
$$$$
=
     RDKit          3D

 42 41  0  0  0  0  0  0  0  0999 V2000
   17.4020   15.3590    3.7080 C   0  0  0  0  0  0  0  0  0  0  0  0
   18.2980   14.1660    3.6150 N   0  0  0  0  0  4  0  0  0  0  0  0
   17.6790   12.8700    3.1690 C   0  0  0  0  0  0  0  0  0  0  0  0
   16.2660   13.1780    2.6670 C   0  0  0  0  0  0  0  0  0  0  0  0
   15.4890   11.9900    2.8730 O   0  0  0  0  0  0  0  0  0  0  0  0
   14.0990   13.7000    3.9210 C   0  0  0  0  0  0  0  0  0  0  0  0
   14.2990   12.2230    3.6380 C   0  0  0  0  0  0  0  0  0  0  0  0
   17.6080   16.1760    4.9860 C   0  0  1  0  0  0  0  0  0  0  0  0
   16.5670   15.8750    6.0610 C   0  0  0  0  0  0  0  0  0  0  0  0
   18.9920   15.8490    5.5070 C   0  0  0  0  0  0  0  0  0  0  0  0
   19.1880   15.1910    6.5170 O   0  0  0  0  0  0  0  0  0  0  0  0
   19.9350   16.3710    4.6860 O   0  0  0  0  0  0  0  0  0  0  0  0
   20.7400   17.5110    5.0960 C   0  0  0  0  0  0  0  0  0  0  0  0
   21.9020   17.0720    5.9930 C   0  0  0  0  0  0  0  0  0  0  0  0
   21.3110   18.0770    3.7880 C   0  0  0  0  0  0  0  0  0  0  0  0
   19.8750   18.5860    5.7630 C   0  0  0  0  0  0  0  0  0  0  0  0
   17.5970   16.0098    2.8429 H   0  0  0  0  0  0  0  0  0  0  0  0
   16.3669   14.9872    3.7237 H   0  0  0  0  0  0  0  0  0  0  0  0
   19.0496   14.3950    2.9489 H   0  0  0  0  0  0  0  0  0  0  0  0
   18.6068   13.9919    4.5821 H   0  0  0  0  0  0  0  0  0  0  0  0
   18.2769   12.4287    2.3580 H   0  0  0  0  0  0  0  0  0  0  0  0
   17.6442   12.1527    4.0022 H   0  0  0  0  0  0  0  0  0  0  0  0
   15.8358   14.0160    3.2351 H   0  0  0  0  0  0  0  0  0  0  0  0
   16.2765   13.4656    1.6053 H   0  0  0  0  0  0  0  0  0  0  0  0
   14.0766   13.8653    5.0083 H   0  0  0  0  0  0  0  0  0  0  0  0
   14.9277   14.2733    3.4800 H   0  0  0  0  0  0  0  0  0  0  0  0
   13.1477   14.0323    3.4800 H   0  0  0  0  0  0  0  0  0  0  0  0
   14.3772   11.6836    4.5935 H   0  0  0  0  0  0  0  0  0  0  0  0
   13.4383   11.8642    3.0544 H   0  0  0  0  0  0  0  0  0  0  0  0
   17.4983   17.2437    4.7454 H   0  0  0  0  0  0  0  0  0  0  0  0
   17.0186   16.0056    7.0555 H   0  0  0  0  0  0  0  0  0  0  0  0
   15.7166   16.5641    5.9511 H   0  0  0  0  0  0  0  0  0  0  0  0
   16.2156   14.8385    5.9511 H   0  0  0  0  0  0  0  0  0  0  0  0
   21.6121   17.1815    7.0484 H   0  0  0  0  0  0  0  0  0  0  0  0
   22.1466   16.0195    5.7873 H   0  0  0  0  0  0  0  0  0  0  0  0
   22.7815   17.6998    5.7873 H   0  0  0  0  0  0  0  0  0  0  0  0
   22.0749   18.8342    4.0187 H   0  0  0  0  0  0  0  0  0  0  0  0
   21.7659   17.2633    3.2041 H   0  0  0  0  0  0  0  0  0  0  0  0
   20.5013   18.5390    3.2041 H   0  0  0  0  0  0  0  0  0  0  0  0
   19.9510   18.4915    6.8563 H   0  0  0  0  0  0  0  0  0  0  0  0
   20.2263   19.5821    5.4557 H   0  0  0  0  0  0  0  0  0  0  0  0
   18.8268   18.4560    5.4557 H   0  0  0  0  0  0  0  0  0  0  0  0
  2  1  1  0
  3  2  1  0
  4  3  1  0
  5  4  1  0
  7  6  1  0
  7  5  1  0
  8  1  1  0
  9  8  1  0
 10  8  1  0
 11 10  2  0
 12 10  1  0
 13 12  1  0
 14 13  1  0
 15 13  1  0
 16 13  1  0
  1 17  1  0
  1 18  1  0
  2 19  1  0
  2 20  1  0
  3 21  1  0
  3 22  1  0
  4 23  1  0
  4 24  1  0
  6 25  1  0
  6 26  1  0
  6 27  1  0
  7 28  1  0
  7 29  1  0
  8 30  1  6
  9 31  1  0
  9 32  1  0
  9 33  1  0
 14 34  1  0
 14 35  1  0
 14 36  1  0
 15 37  1  0
 15 38  1  0
 15 39  1  0
 16 40  1  0
 16 41  1  0
 16 42  1  0
M  CHG  1   2   1
M  END
$$$$
=
     RDKit          3D

 53 55  0  0  0  0  0  0  0  0999 V2000
   13.3420   14.0490    3.8530 C   0  0  0  0  0  0  0  0  0  0  0  0
   14.1230   15.2160    4.4760 C   0  0  0  0  0  0  0  0  0  0  0  0
   15.4760   15.4140    3.8080 C   0  0  0  0  0  0  0  0  0  0  0  0
   16.2730   14.1300    3.9010 N   0  0  0  0  0  4  0  0  0  0  0  0
   15.5510   12.9930    3.2000 C   0  0  0  0  0  0  0  0  0  0  0  0
   14.1930   12.7710    3.8530 C   0  0  0  0  0  0  0  0  0  0  0  0
   11.9500   13.8420    4.4920 C   0  0  0  0  0  0  0  0  0  0  0  0
    9.8740   12.0230    1.9560 C   0  0  0  0  0  0  0  0  0  0  0  0
   10.9410   12.3110    2.7770 C   0  0  0  0  0  0  0  0  0  0  0  0
   10.8490   13.4610    3.5350 C   0  0  0  0  0  0  0  0  0  0  0  0
    9.7770   14.2760    3.4700 N   0  0  0  0  0  0  0  0  0  0  0  0
    8.7970   13.9250    2.6130 C   0  0  0  0  0  0  0  0  0  0  0  0
    8.7930   12.8040    1.8760 N   0  0  0  0  0  0  0  0  0  0  0  0
    7.5990   14.8180    2.5210 C   0  0  0  0  0  0  0  0  0  0  0  0
    9.8580   10.8510    1.2050 N   0  0  0  0  0  0  0  0  0  0  0  0
   17.7000   14.2700    3.3670 C   0  0  0  0  0  0  0  0  0  0  0  0
   18.2630   15.6590    3.6070 C   0  0  0  0  0  0  0  0  0  0  0  0
   18.9980   15.6650    5.2230 S   0  0  0  0  0  6  0  0  0  0  0  0
   19.4560   14.3110    5.4660 O   0  0  0  0  0  0  0  0  0  0  0  0
   18.0450   16.3030    6.1080 O   0  0  0  0  0  0  0  0  0  0  0  0
   20.4040   16.7200    5.0450 C   0  0  0  0  0  0  0  0  0  0  0  0
   20.5300   17.5130    3.9020 C   0  0  0  0  0  0  0  0  0  0  0  0
   21.6420   18.3440    3.7650 C   0  0  0  0  0  0  0  0  0  0  0  0
   22.6110   18.3860    4.7680 C   0  0  0  0  0  0  0  0  0  0  0  0
   22.4690   17.6060    5.9180 C   0  0  0  0  0  0  0  0  0  0  0  0
   21.3610   16.7730    6.0630 C   0  0  0  0  0  0  0  0  0  0  0  0
   13.1348   14.3133    2.8055 H   0  0  0  0  0  0  0  0  0  0  0  0
   13.5333   16.1380    4.3652 H   0  0  0  0  0  0  0  0  0  0  0  0
   14.2974   14.9820    5.5366 H   0  0  0  0  0  0  0  0  0  0  0  0
   15.3284   15.6791    2.7507 H   0  0  0  0  0  0  0  0  0  0  0  0
   16.0218   16.2238    4.3143 H   0  0  0  0  0  0  0  0  0  0  0  0
   16.3527   13.9106    4.9042 H   0  0  0  0  0  0  0  0  0  0  0  0
   15.4100   13.2476    2.1392 H   0  0  0  0  0  0  0  0  0  0  0  0
   16.1503   12.0742    3.2814 H   0  0  0  0  0  0  0  0  0  0  0  0
   13.6563   11.9863    3.2996 H   0  0  0  0  0  0  0  0  0  0  0  0
   14.3619   12.4739    4.8986 H   0  0  0  0  0  0  0  0  0  0  0  0
   12.0371   13.0440    5.2440 H   0  0  0  0  0  0  0  0  0  0  0  0
   11.6618   14.8166    4.9128 H   0  0  0  0  0  0  0  0  0  0  0  0
   11.8238   11.6566    2.8265 H   0  0  0  0  0  0  0  0  0  0  0  0
    7.2545   15.0748    3.5336 H   0  0  0  0  0  0  0  0  0  0  0  0
    7.8679   15.7378    1.9809 H   0  0  0  0  0  0  0  0  0  0  0  0
    6.7944   14.2976    1.9809 H   0  0  0  0  0  0  0  0  0  0  0  0
    9.0562   10.6424    0.5930 H   0  0  0  0  0  0  0  0  0  0  0  0
   10.6479   10.1924    1.2613 H   0  0  0  0  0  0  0  0  0  0  0  0
   18.3423   13.5341    3.8729 H   0  0  0  0  0  0  0  0  0  0  0  0
   17.6751   14.0964    2.2811 H   0  0  0  0  0  0  0  0  0  0  0  0
   19.0238   15.8923    2.8475 H   0  0  0  0  0  0  0  0  0  0  0  0
   17.4679   16.4162    3.5402 H   0  0  0  0  0  0  0  0  0  0  0  0
   19.7597   17.4825    3.1174 H   0  0  0  0  0  0  0  0  0  0  0  0
   21.7550   18.9668    2.8654 H   0  0  0  0  0  0  0  0  0  0  0  0
   23.4907   19.0363    4.6526 H   0  0  0  0  0  0  0  0  0  0  0  0
   23.2318   17.6492    6.7094 H   0  0  0  0  0  0  0  0  0  0  0  0
   21.2405   16.1627    6.9702 H   0  0  0  0  0  0  0  0  0  0  0  0
  2  1  1  0
  3  2  1  0
  4  3  1  0
  5  4  1  0
  6  5  1  0
  6  1  1  0
  7  1  1  0
  9  8  2  0
 10  9  1  0
 10  7  1  0
 11 10  2  0
 12 11  1  0
 13 12  2  0
 13  8  1  0
 14 12  1  0
 15  8  1  0
 16  4  1  0
 17 16  1  0
 18 17  1  0
 19 18  2  0
 20 18  2  0
 21 18  1  0
 22 21  2  0
 23 22  1  0
 24 23  2  0
 25 24  1  0
 26 21  1  0
 26 25  2  0
  1 27  1  0
  2 28  1  0
  2 29  1  0
  3 30  1  0
  3 31  1  0
  4 32  1  0
  5 33  1  0
  5 34  1  0
  6 35  1  0
  6 36  1  0
  7 37  1  0
  7 38  1  0
  9 39  1  0
 14 40  1  0
 14 41  1  0
 14 42  1  0
 15 43  1  0
 15 44  1  0
 16 45  1  0
 16 46  1  0
 17 47  1  0
 17 48  1  0
 22 49  1  0
 23 50  1  0
 24 51  1  0
 25 52  1  0
 26 53  1  0
M  CHG  1   4   1
M  END
$$$$
=
     RDKit          3D

 17 17  0  0  0  0  0  0  0  0999 V2000
   21.0070   16.5310    5.0880 C   0  0  0  0  0  0  0  0  0  0  0  0
   22.1390   17.1030    5.5190 N   0  0  0  0  0  0  0  0  0  0  0  0
   22.5650   18.1430    4.8000 C   0  0  0  0  0  0  0  0  0  0  0  0
   21.8950   18.6110    3.6900 C   0  0  0  0  0  0  0  0  0  0  0  0
   20.7450   17.9390    3.3410 C   0  0  0  0  0  0  0  0  0  0  0  0
   20.2710   16.8810    4.0210 N   0  0  0  0  0  0  0  0  0  0  0  0
   18.6790   15.5740    6.0210 C   0  0  0  0  0  0  0  0  0  0  0  0
   20.4220   15.1060    5.9820 S   0  0  0  0  0  4  0  0  0  0  0  0
   20.9440   15.1830    7.3890 O   0  0  0  0  0  0  0  0  0  0  0  0
   23.7230   18.7770    5.2460 N   0  0  0  0  0  0  0  0  0  0  0  0
   22.2593   19.4746    3.1142 H   0  0  0  0  0  0  0  0  0  0  0  0
   20.1852   18.2860    2.4600 H   0  0  0  0  0  0  0  0  0  0  0  0
   18.3466   15.6632    7.0658 H   0  0  0  0  0  0  0  0  0  0  0  0
   18.5470   16.5394    5.5105 H   0  0  0  0  0  0  0  0  0  0  0  0
   18.0812   14.8045    5.5105 H   0  0  0  0  0  0  0  0  0  0  0  0
   24.0985   19.5857    4.7304 H   0  0  0  0  0  0  0  0  0  0  0  0
   24.2034   18.4369    6.0912 H   0  0  0  0  0  0  0  0  0  0  0  0
  2  1  2  0
  3  2  1  0
  4  3  2  0
  5  4  1  0
  6  5  2  0
  6  1  1  0
  8  7  1  1
  8  1  1  0
  9  8  2  0
 10  3  1  0
  4 11  1  0
  5 12  1  0
  7 13  1  0
  7 14  1  0
  7 15  1  0
 10 16  1  0
 10 17  1  0
M  END
$$$$
=
     RDKit          3D

 31 32  0  0  0  0  0  0  0  0999 V2000
   18.5700   14.7750    4.0560 C   0  0  1  0  0  0  0  0  0  0  0  0
   19.3300   15.9610    3.5180 C   0  0  1  0  0  0  0  0  0  0  0  0
   17.9160   16.1550    3.9710 C   0  0  2  0  0  0  0  0  0  0  0  0
   20.4560   16.6320    4.2620 C   0  0  0  0  0  0  0  0  0  0  0  0
   21.0940   16.0290    5.3590 C   0  0  0  0  0  0  0  0  0  0  0  0
   22.1470   16.6620    6.0260 C   0  0  0  0  0  0  0  0  0  0  0  0
   22.5920   17.9090    5.6040 C   0  0  0  0  0  0  0  0  0  0  0  0
   21.9910   18.5220    4.5090 C   0  0  0  0  0  0  0  0  0  0  0  0
   20.9390   17.8860    3.8450 C   0  0  0  0  0  0  0  0  0  0  0  0
   17.3120   16.4650    5.6450 S   0  0  0  0  0  6  0  0  0  0  0  0
   15.8730   16.4280    5.4120 O   0  0  0  0  0  0  0  0  0  0  0  0
   17.9180   15.5160    6.5480 O   0  0  0  0  0  0  0  0  0  0  0  0
   17.8270   18.1120    6.0430 C   0  0  0  0  0  0  0  0  0  0  0  0
   17.8480   13.7000    3.3350 C   0  0  0  0  0  0  0  0  0  0  0  0
   18.7580   12.5580    3.0580 N   0  0  0  0  0  4  0  0  0  0  0  0
   18.8973   14.0071    4.7724 H   0  0  0  0  0  0  0  0  0  0  0  0
   19.8947   16.1316    2.5895 H   0  0  0  0  0  0  0  0  0  0  0  0
   17.1599   16.7819    3.4756 H   0  0  0  0  0  0  0  0  0  0  0  0
   20.7581   15.0386    5.7000 H   0  0  0  0  0  0  0  0  0  0  0  0
   22.6246   16.1717    6.8871 H   0  0  0  0  0  0  0  0  0  0  0  0
   23.4161   18.4095    6.1335 H   0  0  0  0  0  0  0  0  0  0  0  0
   22.3436   19.5061    4.1665 H   0  0  0  0  0  0  0  0  0  0  0  0
   20.4775   18.3772    2.9757 H   0  0  0  0  0  0  0  0  0  0  0  0
   17.8641   18.2305    7.1360 H   0  0  0  0  0  0  0  0  0  0  0  0
   18.8256   18.2962    5.6201 H   0  0  0  0  0  0  0  0  0  0  0  0
   17.1112   18.8323    5.6201 H   0  0  0  0  0  0  0  0  0  0  0  0
   17.0070   13.3514    3.9524 H   0  0  0  0  0  0  0  0  0  0  0  0
   17.4766   14.0992    2.3797 H   0  0  0  0  0  0  0  0  0  0  0  0
   19.0810   12.1527    3.9481 H   0  0  0  0  0  0  0  0  0  0  0  0
   18.2541   11.8409    2.5170 H   0  0  0  0  0  0  0  0  0  0  0  0
   19.5695   12.8891    2.5170 H   0  0  0  0  0  0  0  0  0  0  0  0
  2  1  1  0
  3  2  1  0
  3  1  1  0
  4  2  1  0
  5  4  2  0
  6  5  1  0
  7  6  2  0
  8  7  1  0
  9  4  1  0
  9  8  2  0
 10  3  1  0
 11 10  2  0
 12 10  2  0
 13 10  1  0
 14  1  1  0
 15 14  1  0
  1 16  1  1
  2 17  1  6
  3 18  1  6
  5 19  1  0
  6 20  1  0
  7 21  1  0
  8 22  1  0
  9 23  1  0
 13 24  1  0
 13 25  1  0
 13 26  1  0
 14 27  1  0
 14 28  1  0
 15 29  1  0
 15 30  1  0
 15 31  1  0
M  CHG  1  15   1
M  END
$$$$
=
     RDKit          3D

 33 34  0  0  0  0  0  0  0  0999 V2000
   28.5230   26.4670   13.2030 C   0  0  0  0  0  0  0  0  0  0  0  0
   28.1970   27.8290   13.1470 C   0  0  0  0  0  0  0  0  0  0  0  0
   28.5950   28.6770   14.1730 C   0  0  0  0  0  0  0  0  0  0  0  0
   29.3410   28.1550   15.2380 C   0  0  0  0  0  0  0  0  0  0  0  0
   29.7080   26.7880   15.3180 C   0  0  0  0  0  0  0  0  0  0  0  0
   29.2940   25.9450   14.2660 C   0  0  0  0  0  0  0  0  0  0  0  0
   29.5860   24.6270   14.2220 N   0  0  0  0  0  0  0  0  0  0  0  0
   30.2980   24.0950   15.2410 C   0  0  0  0  0  0  0  0  0  0  0  0
   30.7440   24.8230   16.3220 C   0  0  0  0  0  0  0  0  0  0  0  0
   30.4460   26.1790   16.3620 C   0  0  0  0  0  0  0  0  0  0  0  0
   29.7430   29.0900   16.2750 N   0  0  0  0  0  4  0  0  0  0  0  0
   30.8480   29.6310   16.1510 O   0  0  0  0  0  0  0  0  0  0  0  0
   28.9310   29.2940   17.1850 O   0  0  0  0  0  1  0  0  0  0  0  0
   28.1750   25.5700   12.1260 N   0  0  0  0  0  0  0  0  0  0  0  0
   26.7330   25.5600   11.8160 C   0  0  0  0  0  0  0  0  0  0  0  0
   26.0050   24.8600   12.9710 C   0  0  0  0  0  0  0  0  0  0  0  0
   26.3300   23.3700   13.0410 C   0  0  0  0  0  0  0  0  0  0  0  0
   26.8030   23.0150   14.4000 N   0  0  0  0  0  4  0  0  0  0  0  0
   27.6277   28.2253   12.2933 H   0  0  0  0  0  0  0  0  0  0  0  0
   28.3281   29.7439   14.1496 H   0  0  0  0  0  0  0  0  0  0  0  0
   30.5342   23.0213   15.2047 H   0  0  0  0  0  0  0  0  0  0  0  0
   31.3187   24.3450   17.1290 H   0  0  0  0  0  0  0  0  0  0  0  0
   30.7868   26.7862   17.2135 H   0  0  0  0  0  0  0  0  0  0  0  0
   28.8657   24.9940   11.6239 H   0  0  0  0  0  0  0  0  0  0  0  0
   26.3659   26.5919   11.7140 H   0  0  0  0  0  0  0  0  0  0  0  0
   26.5489   25.0291   10.8704 H   0  0  0  0  0  0  0  0  0  0  0  0
   26.3061   25.3328   13.9175 H   0  0  0  0  0  0  0  0  0  0  0  0
   24.9234   24.9612   12.7983 H   0  0  0  0  0  0  0  0  0  0  0  0
   25.4257   22.7890   12.8073 H   0  0  0  0  0  0  0  0  0  0  0  0
   27.1216   23.1396   12.3128 H   0  0  0  0  0  0  0  0  0  0  0  0
   26.2004   23.4673   15.1023 H   0  0  0  0  0  0  0  0  0  0  0  0
   26.7638   21.9929   14.5211 H   0  0  0  0  0  0  0  0  0  0  0  0
   27.7735   23.3381   14.5211 H   0  0  0  0  0  0  0  0  0  0  0  0
  2  1  2  0
  3  2  1  0
  4  3  2  0
  5  4  1  0
  6  5  2  0
  6  1  1  0
  7  6  1  0
  8  7  2  0
  9  8  1  0
 10  9  2  0
 10  5  1  0
 11  4  1  0
 12 11  2  0
 13 11  1  0
 14  1  1  0
 15 14  1  0
 16 15  1  0
 17 16  1  0
 18 17  1  0
  2 19  1  0
  3 20  1  0
  8 21  1  0
  9 22  1  0
 10 23  1  0
 14 24  1  0
 15 25  1  0
 15 26  1  0
 16 27  1  0
 16 28  1  0
 17 29  1  0
 17 30  1  0
 18 31  1  0
 18 32  1  0
 18 33  1  0
M  CHG  3  11   1  13  -1  18   1
M  END
$$$$
=
     RDKit          3D

 36 38  0  0  0  0  0  0  0  0999 V2000
   16.0970   13.5940    3.4300 N   0  0  0  0  0  0  0  0  0  0  0  0
   16.7320   12.9350    2.4340 C   0  0  0  0  0  0  0  0  0  0  0  0
   16.3930   12.3150    1.4550 O   0  0  0  0  0  0  0  0  0  0  0  0
   18.1030   13.1420    3.1170 C   0  0  1  0  0  0  0  0  0  0  0  0
   17.2850   13.8330    4.2600 C   0  0  1  0  0  0  0  0  0  0  0  0
   10.5400   14.2640    4.5940 C   0  0  0  0  0  0  0  0  0  0  0  0
   12.0030   14.0840    4.3130 C   0  0  0  0  0  0  0  0  0  0  0  0
   12.8760   15.1730    4.3720 C   0  0  0  0  0  0  0  0  0  0  0  0
   14.2360   15.0120    4.0850 C   0  0  0  0  0  0  0  0  0  0  0  0
   14.7420   13.7610    3.7190 C   0  0  0  0  0  0  0  0  0  0  0  0
   13.8660   12.6730    3.6500 C   0  0  0  0  0  0  0  0  0  0  0  0
   12.5060   12.8350    3.9380 C   0  0  0  0  0  0  0  0  0  0  0  0
   17.6910   15.3280    4.5980 C   0  0  0  0  0  0  0  0  0  0  0  0
   18.6150   16.0620    3.8250 C   0  0  0  0  0  0  0  0  0  0  0  0
   18.9750   17.3740    4.1480 C   0  0  0  0  0  0  0  0  0  0  0  0
   18.4200   17.9940    5.2600 C   0  0  0  0  0  0  0  0  0  0  0  0
   17.5010   17.3060    6.0430 C   0  0  0  0  0  0  0  0  0  0  0  0
   17.1440   15.9960    5.7140 C   0  0  0  0  0  0  0  0  0  0  0  0
   18.7060   11.8150    3.4360 N   0  0  0  0  0  4  0  0  0  0  0  0
   18.9769   13.6481    2.6808 H   0  0  0  0  0  0  0  0  0  0  0  0
   17.3146   13.5042    5.3093 H   0  0  0  0  0  0  0  0  0  0  0  0
   10.3753   14.2843    5.6814 H   0  0  0  0  0  0  0  0  0  0  0  0
   10.1958   15.2113    4.1533 H   0  0  0  0  0  0  0  0  0  0  0  0
    9.9765   13.4284    4.1533 H   0  0  0  0  0  0  0  0  0  0  0  0
   12.4908   16.1661    4.6466 H   0  0  0  0  0  0  0  0  0  0  0  0
   14.9128   15.8769    4.1478 H   0  0  0  0  0  0  0  0  0  0  0  0
   14.2491   11.6815    3.3670 H   0  0  0  0  0  0  0  0  0  0  0  0
   11.8273   11.9721    3.8687 H   0  0  0  0  0  0  0  0  0  0  0  0
   19.0662   15.5877    2.9410 H   0  0  0  0  0  0  0  0  0  0  0  0
   19.6984   17.9156    3.5208 H   0  0  0  0  0  0  0  0  0  0  0  0
   18.7063   19.0239    5.5194 H   0  0  0  0  0  0  0  0  0  0  0  0
   17.0544   17.7931    6.9223 H   0  0  0  0  0  0  0  0  0  0  0  0
   16.4134   15.4686    6.3449 H   0  0  0  0  0  0  0  0  0  0  0  0
   18.7589   11.6987    4.4580 H   0  0  0  0  0  0  0  0  0  0  0  0
   18.1220   11.0672    3.0351 H   0  0  0  0  0  0  0  0  0  0  0  0
   19.6533   11.7631    3.0351 H   0  0  0  0  0  0  0  0  0  0  0  0
  2  1  1  0
  3  2  2  0
  4  2  1  0
  5  1  1  0
  5  4  1  0
  7  6  1  0
  8  7  2  0
  9  8  1  0
 10  9  2  0
 10  1  1  0
 11 10  1  0
 12 11  2  0
 12  7  1  0
 13  5  1  0
 14 13  2  0
 15 14  1  0
 16 15  2  0
 17 16  1  0
 18 13  1  0
 18 17  2  0
 19  4  1  0
  4 20  1  6
  5 21  1  1
  6 22  1  0
  6 23  1  0
  6 24  1  0
  8 25  1  0
  9 26  1  0
 11 27  1  0
 12 28  1  0
 14 29  1  0
 15 30  1  0
 16 31  1  0
 17 32  1  0
 18 33  1  0
 19 34  1  0
 19 35  1  0
 19 36  1  0
M  CHG  1  19   1
M  END
$$$$
=
     RDKit          3D

 24 26  0  0  0  0  0  0  0  0999 V2000
   13.7780   12.8060    3.1820 C   0  0  0  0  0  0  0  0  0  0  0  0
   15.0270   12.2820    2.7990 C   0  0  0  0  0  0  0  0  0  0  0  0
   16.1840   12.9670    3.1410 C   0  0  0  0  0  0  0  0  0  0  0  0
   17.6170   12.6140    2.8680 C   0  0  0  0  0  0  0  0  0  0  0  0
   18.4080   13.7820    3.5150 C   0  0  0  0  0  0  0  0  0  0  0  0
   17.3320   14.6820    4.0470 C   0  0  0  0  0  0  0  0  0  0  0  0
   16.0880   14.1600    3.8090 C   0  0  0  0  0  0  0  0  0  0  0  0
   14.8900   14.7670    4.1790 C   0  0  0  0  0  0  0  0  0  0  0  0
   13.7220   14.0650    3.8310 C   0  0  0  0  0  0  0  0  0  0  0  0
   12.5210   14.5860    4.1390 F   0  0  0  0  0  0  0  0  0  0  0  0
   14.9990   16.0040    4.8450 C   0  0  0  0  0  0  0  0  0  0  0  0
   16.2690   16.5570    5.1050 C   0  0  0  0  0  0  0  0  0  0  0  0
   17.4430   15.8950    4.7060 C   0  0  0  0  0  0  0  0  0  0  0  0
   12.5970   12.1830    2.7340 N   0  0  0  0  0  0  0  0  0  0  0  0
   15.0851   11.3396    2.2346 H   0  0  0  0  0  0  0  0  0  0  0  0
   17.8812   11.6539    3.3353 H   0  0  0  0  0  0  0  0  0  0  0  0
   17.8316   12.4936    1.7959 H   0  0  0  0  0  0  0  0  0  0  0  0
   19.0529   13.4172    4.3280 H   0  0  0  0  0  0  0  0  0  0  0  0
   19.0789   14.2893    2.8061 H   0  0  0  0  0  0  0  0  0  0  0  0
   14.0916   16.5387    5.1624 H   0  0  0  0  0  0  0  0  0  0  0  0
   16.3426   17.5217    5.6283 H   0  0  0  0  0  0  0  0  0  0  0  0
   18.4310   16.3320    4.9132 H   0  0  0  0  0  0  0  0  0  0  0  0
   11.6792   12.5603    3.0098 H   0  0  0  0  0  0  0  0  0  0  0  0
   12.6511   11.3501    2.1305 H   0  0  0  0  0  0  0  0  0  0  0  0
  2  1  2  0
  3  2  1  0
  4  3  1  0
  5  4  1  0
  6  5  1  0
  7  3  2  0
  7  6  1  0
  8  7  1  0
  9  8  2  0
  9  1  1  0
 10  9  1  0
 11  8  1  0
 12 11  2  0
 13 12  1  0
 13  6  2  0
 14  1  1  0
  2 15  1  0
  4 16  1  0
  4 17  1  0
  5 18  1  0
  5 19  1  0
 11 20  1  0
 12 21  1  0
 13 22  1  0
 14 23  1  0
 14 24  1  0
M  END
$$$$
=
     RDKit          3D

 35 35  0  0  0  0  0  0  0  0999 V2000
   17.8330   13.6540    3.6640 O   0  0  0  0  0  0  0  0  0  0  0  0
   17.6320   14.8420    3.8580 C   0  0  0  0  0  0  0  0  0  0  0  0
   18.6210   15.7060    4.3170 N   0  0  0  0  0  0  0  0  0  0  0  0
   18.3270   17.0690    4.7470 C   0  0  0  0  0  0  0  0  0  0  0  0
   19.5140   18.0490    4.5540 C   0  0  2  0  0  0  0  0  0  0  0  0
   20.8390   17.3560    4.2340 C   0  0  0  0  0  0  0  0  0  0  0  0
   20.9650   16.1070    5.0860 C   0  0  0  0  0  0  0  0  0  0  0  0
   19.8820   15.0870    4.7550 C   0  0  0  0  0  0  0  0  0  0  0  0
   22.1980   15.5800    4.9620 F   0  0  0  0  0  0  0  0  0  0  0  0
   20.8320   16.5110    6.3860 F   0  0  0  0  0  0  0  0  0  0  0  0
   19.6910   18.8640    5.8080 N   0  0  0  0  0  4  0  0  0  0  0  0
   16.4530   15.4800    3.6620 O   0  0  0  0  0  0  0  0  0  0  0  0
   15.2810   15.1420    4.4540 C   0  0  0  0  0  0  0  0  0  0  0  0
   15.5940   15.1810    5.9540 C   0  0  0  0  0  0  0  0  0  0  0  0
   14.6880   13.7950    4.0260 C   0  0  0  0  0  0  0  0  0  0  0  0
   14.2660   16.2490    4.1350 C   0  0  0  0  0  0  0  0  0  0  0  0
   17.4707   17.4405    4.1650 H   0  0  0  0  0  0  0  0  0  0  0  0
   18.1130   17.0288    5.8252 H   0  0  0  0  0  0  0  0  0  0  0  0
   19.2606   18.6785    3.6883 H   0  0  0  0  0  0  0  0  0  0  0  0
   20.8623   17.0796    3.1696 H   0  0  0  0  0  0  0  0  0  0  0  0
   21.6750   18.0375    4.4499 H   0  0  0  0  0  0  0  0  0  0  0  0
   20.2500   14.4344    3.9496 H   0  0  0  0  0  0  0  0  0  0  0  0
   19.6688   14.5242    5.6758 H   0  0  0  0  0  0  0  0  0  0  0  0
   19.5597   18.2596    6.6317 H   0  0  0  0  0  0  0  0  0  0  0  0
   20.6390   19.2664    5.8250 H   0  0  0  0  0  0  0  0  0  0  0  0
   18.9953   19.6234    5.8250 H   0  0  0  0  0  0  0  0  0  0  0  0
   14.6618   15.0648    6.5262 H   0  0  0  0  0  0  0  0  0  0  0  0
   16.2835   14.3618    6.2061 H   0  0  0  0  0  0  0  0  0  0  0  0
   16.0614   16.1443    6.2061 H   0  0  0  0  0  0  0  0  0  0  0  0
   14.4295   13.2077    4.9194 H   0  0  0  0  0  0  0  0  0  0  0  0
   13.7825   13.9672    3.4257 H   0  0  0  0  0  0  0  0  0  0  0  0
   15.4265   13.2434    3.4257 H   0  0  0  0  0  0  0  0  0  0  0  0
   13.8780   16.6722    5.0733 H   0  0  0  0  0  0  0  0  0  0  0  0
   14.7584   17.0409    3.5516 H   0  0  0  0  0  0  0  0  0  0  0  0
   13.4344   15.8270    3.5516 H   0  0  0  0  0  0  0  0  0  0  0  0
  2  1  2  0
  3  2  1  0
  4  3  1  0
  5  4  1  0
  6  5  1  0
  7  6  1  0
  8  7  1  0
  8  3  1  0
  9  7  1  0
 10  7  1  0
 11  5  1  0
 12  2  1  0
 13 12  1  0
 14 13  1  0
 15 13  1  0
 16 13  1  0
  4 17  1  0
  4 18  1  0
  5 19  1  6
  6 20  1  0
  6 21  1  0
  8 22  1  0
  8 23  1  0
 11 24  1  0
 11 25  1  0
 11 26  1  0
 14 27  1  0
 14 28  1  0
 14 29  1  0
 15 30  1  0
 15 31  1  0
 15 32  1  0
 16 33  1  0
 16 34  1  0
 16 35  1  0
M  CHG  1  11   1
M  END
$$$$
=
     RDKit          3D

 40 41  0  0  0  0  0  0  0  0999 V2000
   25.7710   27.5750   16.8840 O   0  0  0  0  0  0  0  0  0  0  0  0
   26.6300   26.8120   16.4690 C   0  0  0  0  0  0  0  0  0  0  0  0
   26.5130   26.1370   15.2830 N   0  0  0  0  0  0  0  0  0  0  0  0
   25.6800   26.5210   14.1570 C   0  0  0  0  0  0  0  0  0  0  0  0
   26.4630   25.4410   13.3510 C   0  0  0  0  0  0  0  0  0  0  0  0
   27.5640   25.5970   14.4420 C   0  0  0  0  0  0  0  0  0  0  0  0
   25.7380   24.0800   13.3350 C   0  0  0  0  0  0  0  0  0  0  0  0
   25.5470   23.6000   11.9120 N   0  0  0  0  0  4  0  0  0  0  0  0
   26.7400   23.0010   11.2420 C   0  0  0  0  0  0  0  0  0  0  0  0
   28.0350   23.7490   11.5420 C   0  0  0  0  0  0  0  0  0  0  0  0
   27.9510   25.2630   11.3720 C   0  0  0  0  0  0  0  0  0  0  0  0
   26.7920   25.8350   11.9830 O   0  0  0  0  0  0  0  0  0  0  0  0
   27.7910   26.4970   17.0880 O   0  0  0  0  0  0  0  0  0  0  0  0
   28.8150   27.5050   17.3030 C   0  0  0  0  0  0  0  0  0  0  0  0
   28.9260   28.4500   16.1010 C   0  0  0  0  0  0  0  0  0  0  0  0
   28.5800   28.2670   18.6120 C   0  0  0  0  0  0  0  0  0  0  0  0
   30.1240   26.7110   17.4260 C   0  0  0  0  0  0  0  0  0  0  0  0
   24.6061   26.3188   14.2832 H   0  0  0  0  0  0  0  0  0  0  0  0
   25.5890   27.5630   13.8165 H   0  0  0  0  0  0  0  0  0  0  0  0
   28.0033   24.6529   14.7966 H   0  0  0  0  0  0  0  0  0  0  0  0
   28.5070   26.1325   14.2576 H   0  0  0  0  0  0  0  0  0  0  0  0
   26.3384   23.3430   13.8885 H   0  0  0  0  0  0  0  0  0  0  0  0
   24.7515   24.1958   13.8077 H   0  0  0  0  0  0  0  0  0  0  0  0
   24.8027   22.8880   11.9197 H   0  0  0  0  0  0  0  0  0  0  0  0
   25.3262   24.4460   11.3675 H   0  0  0  0  0  0  0  0  0  0  0  0
   26.8488   21.9616   11.5852 H   0  0  0  0  0  0  0  0  0  0  0  0
   26.5708   23.0616   10.1568 H   0  0  0  0  0  0  0  0  0  0  0  0
   28.3202   23.5364   12.5829 H   0  0  0  0  0  0  0  0  0  0  0  0
   28.7752   23.3948   10.8094 H   0  0  0  0  0  0  0  0  0  0  0  0
   28.8449   25.7159   11.8257 H   0  0  0  0  0  0  0  0  0  0  0  0
   27.8864   25.4677   10.2931 H   0  0  0  0  0  0  0  0  0  0  0  0
   29.0474   29.4836   16.4572 H   0  0  0  0  0  0  0  0  0  0  0  0
   29.7971   28.1674   15.4917 H   0  0  0  0  0  0  0  0  0  0  0  0
   28.0131   28.3770   15.4917 H   0  0  0  0  0  0  0  0  0  0  0  0
   28.7848   27.6029   19.4647 H   0  0  0  0  0  0  0  0  0  0  0  0
   29.2515   29.1372   18.6554 H   0  0  0  0  0  0  0  0  0  0  0  0
   27.5350   28.6078   18.6554 H   0  0  0  0  0  0  0  0  0  0  0  0
   30.3655   26.5645   18.4891 H   0  0  0  0  0  0  0  0  0  0  0  0
   30.0062   25.7320   16.9385 H   0  0  0  0  0  0  0  0  0  0  0  0
   30.9378   27.2678   16.9385 H   0  0  0  0  0  0  0  0  0  0  0  0
  2  1  2  0
  3  2  1  0
  4  3  1  0
  5  4  1  0
  6  5  1  0
  6  3  1  0
  7  5  1  0
  8  7  1  0
  9  8  1  0
 10  9  1  0
 11 10  1  0
 12  5  1  0
 12 11  1  0
 13  2  1  0
 14 13  1  0
 15 14  1  0
 16 14  1  0
 17 14  1  0
  4 18  1  0
  4 19  1  0
  6 20  1  0
  6 21  1  0
  7 22  1  0
  7 23  1  0
  8 24  1  0
  8 25  1  0
  9 26  1  0
  9 27  1  0
 10 28  1  0
 10 29  1  0
 11 30  1  0
 11 31  1  0
 15 32  1  0
 15 33  1  0
 15 34  1  0
 16 35  1  0
 16 36  1  0
 16 37  1  0
 17 38  1  0
 17 39  1  0
 17 40  1  0
M  CHG  1   8   1
M  END
$$$$
=
     RDKit          3D

 22 23  0  0  0  0  0  0  0  0999 V2000
   15.4660   16.9020    4.9890 F   0  0  0  0  0  0  0  0  0  0  0  0
   15.9920   15.6460    4.9920 C   0  0  2  0  0  0  0  0  0  0  0  0
   17.3750   15.7260    4.3310 C   0  0  0  0  0  0  0  0  0  0  0  0
   17.9250   14.3610    4.0380 N   0  0  0  0  0  4  0  0  0  0  0  0
   17.0650   13.6110    3.0750 C   0  0  0  0  0  0  0  0  0  0  0  0
   15.6080   13.6480    3.4460 C   0  0  0  0  0  0  0  0  0  0  0  0
   15.0920   14.6360    4.3130 C   0  0  0  0  0  0  0  0  0  0  0  0
   13.7180   14.6590    4.5950 C   0  0  0  0  0  0  0  0  0  0  0  0
   12.8620   13.7240    4.0160 C   0  0  0  0  0  0  0  0  0  0  0  0
   13.3670   12.7560    3.1530 C   0  0  0  0  0  0  0  0  0  0  0  0
   14.7310   12.7190    2.8650 C   0  0  0  0  0  0  0  0  0  0  0  0
   16.0858   15.2853    6.0269 H   0  0  0  0  0  0  0  0  0  0  0  0
   17.2886   16.2863    3.3884 H   0  0  0  0  0  0  0  0  0  0  0  0
   18.0608   16.2321    5.0264 H   0  0  0  0  0  0  0  0  0  0  0  0
   18.8677   14.4609    3.6351 H   0  0  0  0  0  0  0  0  0  0  0  0
   17.9537   13.8314    4.9209 H   0  0  0  0  0  0  0  0  0  0  0  0
   17.1850   14.0557    2.0761 H   0  0  0  0  0  0  0  0  0  0  0  0
   17.3856   12.5589    3.0936 H   0  0  0  0  0  0  0  0  0  0  0  0
   13.3134   15.4204    5.2780 H   0  0  0  0  0  0  0  0  0  0  0  0
   11.7857   13.7511    4.2414 H   0  0  0  0  0  0  0  0  0  0  0  0
   12.6893   12.0190    2.6974 H   0  0  0  0  0  0  0  0  0  0  0  0
   15.1227   11.9555    2.1768 H   0  0  0  0  0  0  0  0  0  0  0  0
  2  1  1  0
  3  2  1  0
  4  3  1  0
  5  4  1  0
  6  5  1  0
  7  6  2  0
  7  2  1  0
  8  7  1  0
  9  8  2  0
 10  9  1  0
 11 10  2  0
 11  6  1  0
  2 12  1  1
  3 13  1  0
  3 14  1  0
  4 15  1  0
  4 16  1  0
  5 17  1  0
  5 18  1  0
  8 19  1  0
  9 20  1  0
 10 21  1  0
 11 22  1  0
M  CHG  1   4   1
M  END
$$$$
=
     RDKit          3D

 38 38  0  0  0  0  0  0  0  0999 V2000
   19.1920   14.7590    5.1620 C   0  0  0  0  0  0  0  0  0  0  0  0
   21.1110   15.6250    7.0280 O   0  0  0  0  0  0  0  0  0  0  0  0
   21.3070   15.8270    5.8370 C   0  0  0  0  0  0  0  0  0  0  0  0
   20.5280   15.2640    4.8660 N   0  0  0  0  0  0  0  0  0  0  0  0
   22.2780   16.5580    5.2700 O   0  0  0  0  0  0  0  0  0  0  0  0
   22.0770   17.9640    4.9560 C   0  0  0  0  0  0  0  0  0  0  0  0
   21.7640   18.1560    3.4680 C   0  0  0  0  0  0  0  0  0  0  0  0
   20.9950   18.5780    5.8510 C   0  0  0  0  0  0  0  0  0  0  0  0
   23.4210   18.6350    5.2700 C   0  0  0  0  0  0  0  0  0  0  0  0
   18.0340   15.3280    4.2670 C   0  0  1  0  0  0  0  0  0  0  0  0
   18.6420   16.1960    3.1510 C   0  0  0  0  0  0  0  0  0  0  0  0
   17.3320   14.1960    3.5840 N   0  0  0  0  0  4  0  0  0  0  0  0
   17.0170   16.1550    5.0390 C   0  0  0  0  0  0  0  0  0  0  0  0
   16.7550   15.9200    6.5100 C   0  0  0  0  0  0  0  0  0  0  0  0
   17.3740   17.2150    6.0560 C   0  0  0  0  0  0  0  0  0  0  0  0
   19.2089   13.6661    5.0380 H   0  0  0  0  0  0  0  0  0  0  0  0
   18.9677   15.0888    6.1871 H   0  0  0  0  0  0  0  0  0  0  0  0
   20.8917   15.1947    3.9049 H   0  0  0  0  0  0  0  0  0  0  0  0
   20.8308   18.7284    3.3605 H   0  0  0  0  0  0  0  0  0  0  0  0
   22.5879   18.7043    2.9878 H   0  0  0  0  0  0  0  0  0  0  0  0
   21.6486   17.1731    2.9878 H   0  0  0  0  0  0  0  0  0  0  0  0
   21.2629   18.4260    6.9070 H   0  0  0  0  0  0  0  0  0  0  0  0
   20.9160   19.6555    5.6442 H   0  0  0  0  0  0  0  0  0  0  0  0
   20.0295   18.0932    5.6442 H   0  0  0  0  0  0  0  0  0  0  0  0
   23.5523   18.7005    6.3602 H   0  0  0  0  0  0  0  0  0  0  0  0
   24.2382   18.0391    4.8374 H   0  0  0  0  0  0  0  0  0  0  0  0
   23.4359   19.6463    4.8374 H   0  0  0  0  0  0  0  0  0  0  0  0
   19.2183   17.0188    3.5993 H   0  0  0  0  0  0  0  0  0  0  0  0
   19.3068   15.5795    2.5280 H   0  0  0  0  0  0  0  0  0  0  0  0
   17.8355   16.6101    2.5280 H   0  0  0  0  0  0  0  0  0  0  0  0
   16.9375   13.5598    4.2915 H   0  0  0  0  0  0  0  0  0  0  0  0
   16.5730   14.5679    2.9953 H   0  0  0  0  0  0  0  0  0  0  0  0
   18.0025   13.6814    2.9953 H   0  0  0  0  0  0  0  0  0  0  0  0
   16.4222   16.1532    4.1137 H   0  0  0  0  0  0  0  0  0  0  0  0
   15.7225   15.9075    6.8893 H   0  0  0  0  0  0  0  0  0  0  0  0
   17.0307   15.1384    7.2333 H   0  0  0  0  0  0  0  0  0  0  0  0
   18.4296   17.4279    6.2804 H   0  0  0  0  0  0  0  0  0  0  0  0
   17.1309   18.2799    6.1861 H   0  0  0  0  0  0  0  0  0  0  0  0
  3  2  2  0
  4  1  1  0
  4  3  1  0
  5  3  1  0
  6  5  1  0
  7  6  1  0
  8  6  1  0
  9  6  1  0
 10  1  1  1
 11 10  1  0
 12 10  1  0
 13 10  1  0
 14 13  1  0
 15 13  1  0
 15 14  1  0
  1 16  1  0
  1 17  1  0
  4 18  1  0
  7 19  1  0
  7 20  1  0
  7 21  1  0
  8 22  1  0
  8 23  1  0
  8 24  1  0
  9 25  1  0
  9 26  1  0
  9 27  1  0
 11 28  1  0
 11 29  1  0
 11 30  1  0
 12 31  1  0
 12 32  1  0
 12 33  1  0
 13 34  1  0
 14 35  1  0
 14 36  1  0
 15 37  1  0
 15 38  1  0
M  CHG  1  12   1
M  END
$$$$
=
     RDKit          3D

 40 41  0  0  0  0  0  0  0  0999 V2000
   20.5320   16.7610    5.0490 N   0  0  0  0  0  4  0  0  0  0  0  0
   19.6710   16.7880    3.7870 C   0  0  0  0  0  0  0  0  0  0  0  0
   18.4040   15.9130    3.9200 C   0  0  0  0  0  0  0  0  0  0  0  0
   17.9780   15.7480    5.3110 N   0  0  0  0  0  0  0  0  0  0  0  0
   18.9840   15.2260    6.2460 C   0  0  0  0  0  0  0  0  0  0  0  0
   20.4270   15.4200    5.7620 C   0  0  0  0  0  0  0  0  0  0  0  0
   16.6520   15.7200    5.7530 C   0  0  0  0  0  0  0  0  0  0  0  0
   16.4070   15.4090    6.9180 O   0  0  0  0  0  0  0  0  0  0  0  0
   22.0550   18.6770    4.5980 C   0  0  0  0  0  0  0  0  0  0  0  0
   21.9630   17.1810    4.8270 C   0  0  0  0  0  0  0  0  0  0  0  0
   15.5710   16.1030    4.7480 C   0  0  0  0  0  0  0  0  0  0  0  0
   14.7570   14.9420    4.2320 C   0  0  0  0  0  0  0  0  0  0  0  0
   13.3710   14.9020    4.4240 C   0  0  0  0  0  0  0  0  0  0  0  0
   12.6180   13.8290    3.9370 C   0  0  0  0  0  0  0  0  0  0  0  0
   13.2340   12.7600    3.2840 C   0  0  0  0  0  0  0  0  0  0  0  0
   14.6050   12.8340    3.0340 C   0  0  0  0  0  0  0  0  0  0  0  0
   15.3660   13.9040    3.5180 C   0  0  0  0  0  0  0  0  0  0  0  0
   12.4620   11.7540    2.6940 N   0  0  0  0  0  0  0  0  0  0  0  0
   20.1414   17.4823    5.6719 H   0  0  0  0  0  0  0  0  0  0  0  0
   19.3645   17.8260    3.5905 H   0  0  0  0  0  0  0  0  0  0  0  0
   20.2736   16.3826    2.9608 H   0  0  0  0  0  0  0  0  0  0  0  0
   17.5876   16.3868    3.3552 H   0  0  0  0  0  0  0  0  0  0  0  0
   18.6448   14.9152    3.5244 H   0  0  0  0  0  0  0  0  0  0  0  0
   18.8669   15.7446    7.2090 H   0  0  0  0  0  0  0  0  0  0  0  0
   18.8143   14.1426    6.3328 H   0  0  0  0  0  0  0  0  0  0  0  0
   21.1106   15.4055    6.6237 H   0  0  0  0  0  0  0  0  0  0  0  0
   20.7008   14.6085    5.0717 H   0  0  0  0  0  0  0  0  0  0  0  0
   22.0869   19.1951    5.5678 H   0  0  0  0  0  0  0  0  0  0  0  0
   22.9689   18.9055    4.0300 H   0  0  0  0  0  0  0  0  0  0  0  0
   21.1760   19.0157    4.0300 H   0  0  0  0  0  0  0  0  0  0  0  0
   22.5588   16.9143    5.7124 H   0  0  0  0  0  0  0  0  0  0  0  0
   22.3486   16.6633    3.9363 H   0  0  0  0  0  0  0  0  0  0  0  0
   14.8863   16.8136    5.2340 H   0  0  0  0  0  0  0  0  0  0  0  0
   16.0901   16.5322    3.8784 H   0  0  0  0  0  0  0  0  0  0  0  0
   12.8705   15.7206    4.9619 H   0  0  0  0  0  0  0  0  0  0  0  0
   11.5261   13.8273    4.0702 H   0  0  0  0  0  0  0  0  0  0  0  0
   15.0937   12.0410    2.4489 H   0  0  0  0  0  0  0  0  0  0  0  0
   16.4505   13.9293    3.3359 H   0  0  0  0  0  0  0  0  0  0  0  0
   12.9214   10.9673    2.2134 H   0  0  0  0  0  0  0  0  0  0  0  0
   11.4341   11.7998    2.7401 H   0  0  0  0  0  0  0  0  0  0  0  0
  2  1  1  0
  3  2  1  0
  4  3  1  0
  5  4  1  0
  6  5  1  0
  6  1  1  0
  7  4  1  0
  8  7  2  0
 10  1  1  0
 10  9  1  0
 11  7  1  0
 12 11  1  0
 13 12  2  0
 14 13  1  0
 15 14  2  0
 16 15  1  0
 17 16  2  0
 17 12  1  0
 18 15  1  0
  1 19  1  0
  2 20  1  0
  2 21  1  0
  3 22  1  0
  3 23  1  0
  5 24  1  0
  5 25  1  0
  6 26  1  0
  6 27  1  0
  9 28  1  0
  9 29  1  0
  9 30  1  0
 10 31  1  0
 10 32  1  0
 11 33  1  0
 11 34  1  0
 13 35  1  0
 14 36  1  0
 16 37  1  0
 17 38  1  0
 18 39  1  0
 18 40  1  0
M  CHG  1   1   1
M  END
$$$$
=
     RDKit          3D

 29 31  0  0  0  0  0  0  0  0999 V2000
   23.3870   18.0970    5.8980 F   0  0  0  0  0  0  0  0  0  0  0  0
   22.2160   17.7600    5.3420 C   0  0  0  0  0  0  0  0  0  0  0  0
   21.8580   18.3230    4.1260 C   0  0  0  0  0  0  0  0  0  0  0  0
   20.6390   17.9840    3.5310 C   0  0  0  0  0  0  0  0  0  0  0  0
   19.7790   17.0680    4.1750 C   0  0  0  0  0  0  0  0  0  0  0  0
   20.1690   16.5200    5.3960 C   0  0  0  0  0  0  0  0  0  0  0  0
   21.3900   16.8520    6.0040 C   0  0  0  0  0  0  0  0  0  0  0  0
   18.9420   15.4490    5.9410 S   0  0  0  0  0  0  0  0  0  0  0  0
   17.9970   15.7840    4.5390 C   0  0  0  0  0  0  0  0  0  0  0  0
   18.5510   16.6430    3.7050 N   0  0  0  0  0  0  0  0  0  0  0  0
   16.6780   15.1530    4.3060 C   0  0  0  0  0  0  0  0  0  0  0  0
   15.5380   15.7520    4.8600 C   0  0  0  0  0  0  0  0  0  0  0  0
   14.2660   15.2180    4.6460 C   0  0  0  0  0  0  0  0  0  0  0  0
   14.0960   14.0540    3.8850 C   0  0  0  0  0  0  0  0  0  0  0  0
   15.2290   13.3960    3.3780 C   0  0  0  0  0  0  0  0  0  0  0  0
   16.4960   13.9830    3.5500 C   0  0  0  0  0  0  0  0  0  0  0  0
   12.7060   13.5340    3.6440 C   0  0  0  0  0  0  0  0  0  0  0  0
   15.1110   12.2900    2.5200 N   0  0  0  0  0  0  0  0  0  0  0  0
   22.5329   19.0360    3.6299 H   0  0  0  0  0  0  0  0  0  0  0  0
   20.3516   18.4284    2.5667 H   0  0  0  0  0  0  0  0  0  0  0  0
   21.6847   16.4117    6.9680 H   0  0  0  0  0  0  0  0  0  0  0  0
   15.6476   16.6582    5.4738 H   0  0  0  0  0  0  0  0  0  0  0  0
   13.3869   15.7170    5.0799 H   0  0  0  0  0  0  0  0  0  0  0  0
   17.3707   13.5115    3.0782 H   0  0  0  0  0  0  0  0  0  0  0  0
   12.2113   13.3489    4.6089 H   0  0  0  0  0  0  0  0  0  0  0  0
   12.1302   14.2775    3.0734 H   0  0  0  0  0  0  0  0  0  0  0  0
   12.7596   12.5951    3.0734 H   0  0  0  0  0  0  0  0  0  0  0  0
   15.9566   11.8241    2.1611 H   0  0  0  0  0  0  0  0  0  0  0  0
   14.1789   11.9450    2.2498 H   0  0  0  0  0  0  0  0  0  0  0  0
  2  1  1  0
  3  2  2  0
  4  3  1  0
  5  4  2  0
  6  5  1  0
  7  6  2  0
  7  2  1  0
  8  6  1  0
  9  8  1  0
 10  9  2  0
 10  5  1  0
 11  9  1  0
 12 11  2  0
 13 12  1  0
 14 13  2  0
 15 14  1  0
 16 15  2  0
 16 11  1  0
 17 14  1  0
 18 15  1  0
  3 19  1  0
  4 20  1  0
  7 21  1  0
 12 22  1  0
 13 23  1  0
 16 24  1  0
 17 25  1  0
 17 26  1  0
 17 27  1  0
 18 28  1  0
 18 29  1  0
M  END
$$$$
=
     RDKit          3D

 30 32  0  0  0  0  0  0  0  0999 V2000
   19.0530   14.9410    4.4590 N   0  0  0  0  0  0  0  0  0  0  0  0
   19.2780   14.3830    5.6910 C   0  0  0  0  0  0  0  0  0  0  0  0
   20.2830   14.9600    6.3210 N   0  0  0  0  0  0  0  0  0  0  0  0
   20.7160   15.9290    5.4540 C   0  0  0  0  0  0  0  0  0  0  0  0
   19.9710   15.9410    4.2970 C   0  0  0  0  0  0  0  0  0  0  0  0
   20.1060   16.7480    3.2170 N   0  0  0  0  0  0  0  0  0  0  0  0
   21.0770   17.6120    3.3410 C   0  0  0  0  0  0  0  0  0  0  0  0
   21.3320   18.4940    2.3410 N   0  0  0  0  0  0  0  0  0  0  0  0
   21.8890   17.7070    4.4550 N   0  0  0  0  0  0  0  0  0  0  0  0
   21.7940   16.8870    5.5720 C   0  0  0  0  0  0  0  0  0  0  0  0
   22.5620   16.9980    6.5210 O   0  0  0  0  0  0  0  0  0  0  0  0
   15.7660   14.2240    3.2850 C   0  0  2  0  0  0  0  0  0  0  0  0
   16.4580   12.9500    2.8120 C   0  0  0  0  0  0  0  0  0  0  0  0
   17.8560   13.0560    3.3750 C   0  0  0  0  0  0  0  0  0  0  0  0
   18.0590   14.5560    3.4830 C   0  0  1  0  0  0  0  0  0  0  0  0
   16.7690   15.0900    3.8430 O   0  0  0  0  0  0  0  0  0  0  0  0
   13.0140   12.7930    3.5080 I   0  0  0  0  0  0  0  0  0  0  0  0
   14.5860   14.0490    4.2470 C   0  0  0  0  0  0  0  0  0  0  0  0
   18.6893   13.5514    6.1056 H   0  0  0  0  0  0  0  0  0  0  0  0
   22.0979   19.1757    2.4385 H   0  0  0  0  0  0  0  0  0  0  0  0
   20.7596   18.4815    1.4848 H   0  0  0  0  0  0  0  0  0  0  0  0
   22.6156   18.4370    4.4572 H   0  0  0  0  0  0  0  0  0  0  0  0
   15.2861   14.6611    2.3969 H   0  0  0  0  0  0  0  0  0  0  0  0
   15.9459   12.0592    3.2047 H   0  0  0  0  0  0  0  0  0  0  0  0
   16.4517   12.8492    1.7167 H   0  0  0  0  0  0  0  0  0  0  0  0
   17.9239   12.5744    4.3617 H   0  0  0  0  0  0  0  0  0  0  0  0
   18.6152   12.5561    2.7555 H   0  0  0  0  0  0  0  0  0  0  0  0
   18.4398   14.9491    2.5288 H   0  0  0  0  0  0  0  0  0  0  0  0
   14.1625   15.0426    4.4553 H   0  0  0  0  0  0  0  0  0  0  0  0
   14.9853   13.5543    5.1447 H   0  0  0  0  0  0  0  0  0  0  0  0
  2  1  1  0
  3  2  2  0
  4  3  1  0
  5  1  1  0
  5  4  2  0
  6  5  1  0
  7  6  2  0
  8  7  1  0
  9  7  1  0
 10  4  1  0
 10  9  1  0
 11 10  2  0
 13 12  1  0
 14 13  1  0
 15 14  1  0
 15  1  1  0
 16 12  1  0
 16 15  1  0
 18 17  1  0
 18 12  1  0
  2 19  1  0
  8 20  1  0
  8 21  1  0
  9 22  1  0
 12 23  1  6
 13 24  1  0
 13 25  1  0
 14 26  1  0
 14 27  1  0
 15 28  1  6
 18 29  1  0
 18 30  1  0
M  END
$$$$
=
     RDKit          3D

 43 43  0  0  0  0  0  0  0  0999 V2000
   18.8550   14.6340    4.2200 C   0  0  0  0  0  0  0  0  0  0  0  0
   17.6910   13.9220    3.6560 C   0  0  0  0  0  0  0  0  0  0  0  0
   17.6310   12.7010    3.0060 C   0  0  0  0  0  0  0  0  0  0  0  0
   16.2780   12.5220    2.6790 C   0  0  0  0  0  0  0  0  0  0  0  0
   15.5330   13.5450    3.0860 N   0  0  0  0  0  0  0  0  0  0  0  0
   16.3850   14.3680    3.7190 N   0  0  0  0  0  0  0  0  0  0  0  0
   15.8580   15.5780    4.3600 C   0  0  1  0  0  0  0  0  0  0  0  0
   14.3450   15.7520    4.1820 C   0  0  0  0  0  0  0  0  0  0  0  0
   16.3030   15.6870    5.8300 C   0  0  0  0  0  0  0  0  0  0  0  0
   17.0950   16.9420    6.1770 C   0  0  0  0  0  0  0  0  0  0  0  0
   19.5680   15.4310    3.1800 N   0  0  0  0  0  4  0  0  0  0  0  0
   19.1720   16.8720    3.0830 C   0  0  0  0  0  0  0  0  0  0  0  0
   20.4160   17.7310    3.2220 C   0  0  0  0  0  0  0  0  0  0  0  0
   20.5570   18.2740    4.6420 C   0  0  0  0  0  0  0  0  0  0  0  0
   20.6350   17.1840    5.5520 O   0  0  0  0  0  0  0  0  0  0  0  0
   22.8460   18.0200    5.8830 C   0  0  0  0  0  0  0  0  0  0  0  0
   21.9710   16.7830    5.8470 C   0  0  0  0  0  0  0  0  0  0  0  0
   18.5084   15.3119    5.0139 H   0  0  0  0  0  0  0  0  0  0  0  0
   19.5551   13.8859    4.6201 H   0  0  0  0  0  0  0  0  0  0  0  0
   18.4656   12.0172    2.7917 H   0  0  0  0  0  0  0  0  0  0  0  0
   15.8822   11.6423    2.1503 H   0  0  0  0  0  0  0  0  0  0  0  0
   16.3076   16.4285    3.8265 H   0  0  0  0  0  0  0  0  0  0  0  0
   13.8636   15.8074    5.1695 H   0  0  0  0  0  0  0  0  0  0  0  0
   14.1456   16.6790    3.6244 H   0  0  0  0  0  0  0  0  0  0  0  0
   13.9404   14.8945    3.6244 H   0  0  0  0  0  0  0  0  0  0  0  0
   15.4019   15.6681    6.4606 H   0  0  0  0  0  0  0  0  0  0  0  0
   16.9813   14.8393    6.0072 H   0  0  0  0  0  0  0  0  0  0  0  0
   17.1595   17.0442    7.2703 H   0  0  0  0  0  0  0  0  0  0  0  0
   18.1081   16.8645    5.7556 H   0  0  0  0  0  0  0  0  0  0  0  0
   16.5890   17.8231    5.7556 H   0  0  0  0  0  0  0  0  0  0  0  0
   20.5761   15.3929    3.3878 H   0  0  0  0  0  0  0  0  0  0  0  0
   19.3120   15.0076    2.2766 H   0  0  0  0  0  0  0  0  0  0  0  0
   18.6993   17.0608    2.1079 H   0  0  0  0  0  0  0  0  0  0  0  0
   18.4566   17.1178    3.8816 H   0  0  0  0  0  0  0  0  0  0  0  0
   21.3005   17.1230    2.9810 H   0  0  0  0  0  0  0  0  0  0  0  0
   20.3301   18.5824    2.5308 H   0  0  0  0  0  0  0  0  0  0  0  0
   21.4715   18.8809    4.7151 H   0  0  0  0  0  0  0  0  0  0  0  0
   19.6862   18.8997    4.8874 H   0  0  0  0  0  0  0  0  0  0  0  0
   23.0435   18.2991    6.9285 H   0  0  0  0  0  0  0  0  0  0  0  0
   23.7980   17.8107    5.3733 H   0  0  0  0  0  0  0  0  0  0  0  0
   22.3316   18.8480    5.3733 H   0  0  0  0  0  0  0  0  0  0  0  0
   22.0002   16.2790    6.8243 H   0  0  0  0  0  0  0  0  0  0  0  0
   22.3344   16.0858    5.0777 H   0  0  0  0  0  0  0  0  0  0  0  0
  2  1  1  0
  3  2  2  0
  4  3  1  0
  5  4  2  0
  6  5  1  0
  6  2  1  0
  7  6  1  0
  8  7  1  0
  9  7  1  0
 10  9  1  0
 11  1  1  0
 12 11  1  0
 13 12  1  0
 14 13  1  0
 15 14  1  0
 17 15  1  0
 17 16  1  0
  1 18  1  0
  1 19  1  0
  3 20  1  0
  4 21  1  0
  7 22  1  6
  8 23  1  0
  8 24  1  0
  8 25  1  0
  9 26  1  0
  9 27  1  0
 10 28  1  0
 10 29  1  0
 10 30  1  0
 11 31  1  0
 11 32  1  0
 12 33  1  0
 12 34  1  0
 13 35  1  0
 13 36  1  0
 14 37  1  0
 14 38  1  0
 16 39  1  0
 16 40  1  0
 16 41  1  0
 17 42  1  0
 17 43  1  0
M  CHG  1  11   1
M  END
$$$$
=
     RDKit          3D

 29 30  0  0  0  0  0  0  0  0999 V2000
   17.4610   15.6760    4.5550 C   0  0  0  0  0  0  0  0  0  0  0  0
   18.7730   15.2820    4.3010 C   0  0  0  0  0  0  0  0  0  0  0  0
   19.0570   14.1200    3.6500 N   0  0  0  0  0  0  0  0  0  0  0  0
   18.0570   13.3320    3.2180 C   0  0  0  0  0  0  0  0  0  0  0  0
   16.7210   13.6610    3.4130 C   0  0  0  0  0  0  0  0  0  0  0  0
   16.4230   14.8490    4.0970 C   0  0  0  0  0  0  0  0  0  0  0  0
   18.4710   12.2130    2.5100 N   0  0  0  0  0  0  0  0  0  0  0  0
   19.9710   16.0380    4.7090 C   0  0  0  0  0  0  0  0  0  0  0  0
   20.4020   17.1420    3.9570 C   0  0  0  0  0  0  0  0  0  0  0  0
   21.5370   17.8710    4.3240 C   0  0  0  0  0  0  0  0  0  0  0  0
   22.2740   17.5110    5.4570 C   0  0  0  0  0  0  0  0  0  0  0  0
   21.8370   16.4330    6.2330 C   0  0  0  0  0  0  0  0  0  0  0  0
   20.6990   15.7060    5.8630 C   0  0  0  0  0  0  0  0  0  0  0  0
   23.4730   18.3100    5.8710 C   0  0  0  0  0  0  0  0  0  0  0  0
   16.9680   17.8480    5.8830 N   0  0  0  0  0  0  0  0  0  0  0  0
   17.1800   16.8770    5.2860 C   0  0  0  0  0  0  0  0  0  0  0  0
   15.0540   15.2150    4.3310 C   0  0  0  0  0  0  0  0  0  0  0  0
   13.9490   15.5100    4.5170 N   0  0  0  0  0  0  0  0  0  0  0  0
   15.6890   12.7950    2.9270 C   0  0  0  0  0  0  0  0  0  0  0  0
   14.8720   12.0710    2.5340 N   0  0  0  0  0  0  0  0  0  0  0  0
   17.7742   11.5510    2.1397 H   0  0  0  0  0  0  0  0  0  0  0  0
   19.4751   12.0443    2.3547 H   0  0  0  0  0  0  0  0  0  0  0  0
   19.8360   17.4392    3.0619 H   0  0  0  0  0  0  0  0  0  0  0  0
   21.8524   18.7331    3.7180 H   0  0  0  0  0  0  0  0  0  0  0  0
   22.3915   16.1540    7.1411 H   0  0  0  0  0  0  0  0  0  0  0  0
   20.3700   14.8614    6.4862 H   0  0  0  0  0  0  0  0  0  0  0  0
   23.5279   18.3466    6.9690 H   0  0  0  0  0  0  0  0  0  0  0  0
   24.3835   17.8374    5.4739 H   0  0  0  0  0  0  0  0  0  0  0  0
   23.3874   19.3322    5.4739 H   0  0  0  0  0  0  0  0  0  0  0  0
  2  1  2  0
  3  2  1  0
  4  3  2  0
  5  4  1  0
  6  5  2  0
  6  1  1  0
  7  4  1  0
  8  2  1  0
  9  8  2  0
 10  9  1  0
 11 10  2  0
 12 11  1  0
 13  8  1  0
 13 12  2  0
 14 11  1  0
 16  1  1  0
 16 15  3  0
 17  6  1  0
 18 17  3  0
 19  5  1  0
 20 19  3  0
  7 21  1  0
  7 22  1  0
  9 23  1  0
 10 24  1  0
 12 25  1  0
 13 26  1  0
 14 27  1  0
 14 28  1  0
 14 29  1  0
M  END
$$$$
=
     RDKit          3D

 40 41  0  0  0  0  0  0  0  0999 V2000
   18.4360   14.6250    4.0130 O   0  0  0  0  0  0  0  0  0  0  0  0
   17.0770   14.4550    4.0870 C   0  0  0  0  0  0  0  0  0  0  0  0
   16.3290   13.6840    3.1870 C   0  0  0  0  0  0  0  0  0  0  0  0
   14.9400   13.5560    3.3250 C   0  0  0  0  0  0  0  0  0  0  0  0
   14.1590   12.6980    2.3730 C   0  0  0  0  0  0  0  0  0  0  0  0
   14.3020   14.1890    4.3920 C   0  0  0  0  0  0  0  0  0  0  0  0
   15.0370   14.9610    5.2910 C   0  0  0  0  0  0  0  0  0  0  0  0
   16.4290   15.1140    5.1520 C   0  0  0  0  0  0  0  0  0  0  0  0
   17.2040   15.9630    6.1530 C   0  0  0  0  0  0  0  0  0  0  0  0
   16.7880   15.6410    7.5910 C   0  0  0  0  0  0  0  0  0  0  0  0
   17.0580   17.4620    5.8660 C   0  0  0  0  0  0  0  0  0  0  0  0
   18.9360   15.7000    3.2190 C   0  0  0  0  0  0  0  0  0  0  0  0
   22.0840   17.7300    5.4060 C   0  0  0  0  0  0  0  0  0  0  0  0
   21.4090   18.3730    4.3670 C   0  0  0  0  0  0  0  0  0  0  0  0
   20.3770   17.7300    3.6740 C   0  0  0  0  0  0  0  0  0  0  0  0
   20.0250   16.4120    3.9880 C   0  0  0  0  0  0  0  0  0  0  0  0
   20.7500   15.7450    4.9840 C   0  0  0  0  0  0  0  0  0  0  0  0
   21.7800   16.3930    5.6710 C   0  0  0  0  0  0  0  0  0  0  0  0
   23.1900   18.3370    6.0130 N   0  0  0  0  0  0  0  0  0  0  0  0
   16.8401   13.1710    2.3590 H   0  0  0  0  0  0  0  0  0  0  0  0
   13.5254   12.0019    2.9422 H   0  0  0  0  0  0  0  0  0  0  0  0
   13.5254   13.3362    1.7395 H   0  0  0  0  0  0  0  0  0  0  0  0
   14.8538   12.1270    1.7395 H   0  0  0  0  0  0  0  0  0  0  0  0
   13.2156   14.0788    4.5246 H   0  0  0  0  0  0  0  0  0  0  0  0
   14.5194   15.4594    6.1239 H   0  0  0  0  0  0  0  0  0  0  0  0
   18.2676   15.7073    6.0373 H   0  0  0  0  0  0  0  0  0  0  0  0
   17.4586   16.1601    8.2916 H   0  0  0  0  0  0  0  0  0  0  0  0
   15.7535   15.9761    7.7572 H   0  0  0  0  0  0  0  0  0  0  0  0
   16.8530   14.5556    7.7572 H   0  0  0  0  0  0  0  0  0  0  0  0
   17.0043   18.0137    6.8161 H   0  0  0  0  0  0  0  0  0  0  0  0
   17.9264   17.8109    5.2880 H   0  0  0  0  0  0  0  0  0  0  0  0
   16.1386   17.6368    5.2880 H   0  0  0  0  0  0  0  0  0  0  0  0
   19.3466   15.3043    2.2784 H   0  0  0  0  0  0  0  0  0  0  0  0
   18.1219   16.4031    2.9889 H   0  0  0  0  0  0  0  0  0  0  0  0
   21.6921   19.3990    4.0892 H   0  0  0  0  0  0  0  0  0  0  0  0
   19.8387   18.2640    2.8771 H   0  0  0  0  0  0  0  0  0  0  0  0
   20.5060   14.7005    5.2278 H   0  0  0  0  0  0  0  0  0  0  0  0
   22.3578   15.8438    6.4290 H   0  0  0  0  0  0  0  0  0  0  0  0
   23.6843   17.8580    6.7792 H   0  0  0  0  0  0  0  0  0  0  0  0
   23.5094   19.2626    5.6933 H   0  0  0  0  0  0  0  0  0  0  0  0
  2  1  1  0
  3  2  2  0
  4  3  1  0
  5  4  1  0
  6  4  2  0
  7  6  1  0
  8  7  2  0
  8  2  1  0
  9  8  1  0
 10  9  1  0
 11  9  1  0
 12  1  1  0
 14 13  2  0
 15 14  1  0
 16 12  1  0
 16 15  2  0
 17 16  1  0
 18 17  2  0
 18 13  1  0
 19 13  1  0
  3 20  1  0
  5 21  1  0
  5 22  1  0
  5 23  1  0
  6 24  1  0
  7 25  1  0
  9 26  1  0
 10 27  1  0
 10 28  1  0
 10 29  1  0
 11 30  1  0
 11 31  1  0
 11 32  1  0
 12 33  1  0
 12 34  1  0
 14 35  1  0
 15 36  1  0
 17 37  1  0
 18 38  1  0
 19 39  1  0
 19 40  1  0
M  END
$$$$
=
     RDKit          3D

 28 28  0  0  0  0  0  0  0  0999 V2000
   17.5480   14.3170    3.9160 C   0  0  0  0  0  0  0  0  0  0  0  0
   17.7150   13.1780    3.1060 C   0  0  0  0  0  0  0  0  0  0  0  0
   16.6130   12.5180    2.5610 C   0  0  0  0  0  0  0  0  0  0  0  0
   15.3280   12.9830    2.8130 C   0  0  0  0  0  0  0  0  0  0  0  0
   15.1380   14.1120    3.6070 C   0  0  0  0  0  0  0  0  0  0  0  0
   16.2340   14.7920    4.1680 C   0  0  0  0  0  0  0  0  0  0  0  0
   15.9800   16.0170    5.0200 C   0  0  0  0  0  0  0  0  0  0  0  0
   15.8880   15.7050    6.3400 F   0  0  0  0  0  0  0  0  0  0  0  0
   14.7840   16.5930    4.6990 F   0  0  0  0  0  0  0  0  0  0  0  0
   16.9130   16.9940    4.9100 F   0  0  0  0  0  0  0  0  0  0  0  0
   18.7780   14.9810    4.4900 C   0  0  0  0  0  0  0  0  0  0  0  0
   19.7080   15.5020    3.4560 N   0  0  0  0  0  4  0  0  0  0  0  0
   19.9200   16.9880    3.4050 C   0  0  0  0  0  0  0  0  0  0  0  0
   19.5360   17.4500    1.9980 C   0  0  0  0  0  0  0  0  0  0  0  0
   20.7290   17.9180    1.3560 O   0  0  0  0  0  0  0  0  0  0  0  0
   18.7283   12.8030    2.8998 H   0  0  0  0  0  0  0  0  0  0  0  0
   16.7617   11.6285    1.9311 H   0  0  0  0  0  0  0  0  0  0  0  0
   14.4603   12.4594    2.3853 H   0  0  0  0  0  0  0  0  0  0  0  0
   14.1177   14.4762    3.7976 H   0  0  0  0  0  0  0  0  0  0  0  0
   18.4565   15.8206    5.1238 H   0  0  0  0  0  0  0  0  0  0  0  0
   19.3239   14.2137    5.0586 H   0  0  0  0  0  0  0  0  0  0  0  0
   20.6262   15.0640    3.6170 H   0  0  0  0  0  0  0  0  0  0  0  0
   19.2620   15.2679    2.5576 H   0  0  0  0  0  0  0  0  0  0  0  0
   19.2841   17.4856    4.1520 H   0  0  0  0  0  0  0  0  0  0  0  0
   20.9669   17.2417    3.6279 H   0  0  0  0  0  0  0  0  0  0  0  0
   19.1093   16.6098    1.4305 H   0  0  0  0  0  0  0  0  0  0  0  0
   18.7830   18.2505    2.0458 H   0  0  0  0  0  0  0  0  0  0  0  0
   21.3929   18.1784    2.0427 H   0  0  0  0  0  0  0  0  0  0  0  0
  2  1  2  0
  3  2  1  0
  4  3  2  0
  5  4  1  0
  6  5  2  0
  6  1  1  0
  7  6  1  0
  8  7  1  0
  9  7  1  0
 10  7  1  0
 11  1  1  0
 12 11  1  0
 13 12  1  0
 14 13  1  0
 15 14  1  0
  2 16  1  0
  3 17  1  0
  4 18  1  0
  5 19  1  0
 11 20  1  0
 11 21  1  0
 12 22  1  0
 12 23  1  0
 13 24  1  0
 13 25  1  0
 14 26  1  0
 14 27  1  0
 15 28  1  0
M  CHG  1  12   1
M  END
$$$$
=
     RDKit          3D

 50 52  0  0  0  0  0  0  0  0999 V2000
   16.4950   16.4320    4.8440 C   0  0  0  0  0  0  0  0  0  0  0  0
   15.2200   13.1710    3.3350 C   0  0  0  0  0  0  0  0  0  0  0  0
   16.0680   14.2210    3.7090 C   0  0  0  0  0  0  0  0  0  0  0  0
   15.5720   15.3370    4.3950 C   0  0  0  0  0  0  0  0  0  0  0  0
   14.2070   15.3840    4.7070 C   0  0  0  0  0  0  0  0  0  0  0  0
   13.3490   14.3410    4.3370 C   0  0  0  0  0  0  0  0  0  0  0  0
   13.8640   13.2070    3.6940 C   0  0  0  0  0  0  0  0  0  0  0  0
   17.2790   12.1840    2.7520 C   0  0  0  0  0  0  0  0  0  0  0  0
   15.8530   12.1420    2.6910 O   0  0  0  0  0  0  0  0  0  0  0  0
   13.0520   12.1380    3.4250 O   0  0  0  0  0  0  0  0  0  0  0  0
   12.1610   12.4550    2.3530 C   0  0  0  0  0  0  0  0  0  0  0  0
   12.0490   14.5180    4.7280 O   0  0  0  0  0  0  0  0  0  0  0  0
   11.6250   13.6680    5.7950 C   0  0  0  0  0  0  0  0  0  0  0  0
   17.6080   15.8680    5.6560 N   0  0  0  0  0  4  0  0  0  0  0  0
   18.7340   15.2190    4.9010 C   0  0  2  0  0  0  0  0  0  0  0  0
   19.5680   14.4050    5.9040 C   0  0  0  0  0  0  0  0  0  0  0  0
   20.3420   15.3160    6.8540 C   0  0  0  0  0  0  0  0  0  0  0  0
   21.3050   16.2190    6.0860 C   0  0  0  0  0  0  0  0  0  0  0  0
   20.7420   16.7740    4.7970 C   0  0  0  0  0  0  0  0  0  0  0  0
   19.5820   16.2500    4.1920 C   0  0  0  0  0  0  0  0  0  0  0  0
   19.1960   16.7250    2.9250 C   0  0  0  0  0  0  0  0  0  0  0  0
   19.9280   17.7250    2.2860 C   0  0  0  0  0  0  0  0  0  0  0  0
   21.0580   18.2570    2.8970 C   0  0  0  0  0  0  0  0  0  0  0  0
   21.4690   17.7780    4.1400 C   0  0  0  0  0  0  0  0  0  0  0  0
   16.9109   16.9408    3.9618 H   0  0  0  0  0  0  0  0  0  0  0  0
   15.9295   17.1472    5.4593 H   0  0  0  0  0  0  0  0  0  0  0  0
   17.1383   14.1686    3.4606 H   0  0  0  0  0  0  0  0  0  0  0  0
   13.8039   16.2517    5.2498 H   0  0  0  0  0  0  0  0  0  0  0  0
   17.6009   12.1935    3.8038 H   0  0  0  0  0  0  0  0  0  0  0  0
   17.6938   11.2977    2.2496 H   0  0  0  0  0  0  0  0  0  0  0  0
   17.6409   13.0932    2.2496 H   0  0  0  0  0  0  0  0  0  0  0  0
   11.1997   12.7970    2.7641 H   0  0  0  0  0  0  0  0  0  0  0  0
   12.5999   13.2522    1.7350 H   0  0  0  0  0  0  0  0  0  0  0  0
   11.9978   11.5598    1.7350 H   0  0  0  0  0  0  0  0  0  0  0  0
   11.8619   14.1430    6.7585 H   0  0  0  0  0  0  0  0  0  0  0  0
   10.5396   13.5042    5.7241 H   0  0  0  0  0  0  0  0  0  0  0  0
   12.1470   12.7023    5.7241 H   0  0  0  0  0  0  0  0  0  0  0  0
   18.0081   16.6364    6.2132 H   0  0  0  0  0  0  0  0  0  0  0  0
   17.1821   15.1110    6.2096 H   0  0  0  0  0  0  0  0  0  0  0  0
   18.3314   14.5549    4.1220 H   0  0  0  0  0  0  0  0  0  0  0  0
   18.8948   13.7639    6.4921 H   0  0  0  0  0  0  0  0  0  0  0  0
   20.2916   13.7979    5.3402 H   0  0  0  0  0  0  0  0  0  0  0  0
   19.6298   15.9419    7.4117 H   0  0  0  0  0  0  0  0  0  0  0  0
   20.9258   14.6878    7.5428 H   0  0  0  0  0  0  0  0  0  0  0  0
   21.5771   17.0641    6.7354 H   0  0  0  0  0  0  0  0  0  0  0  0
   22.1692   15.5966    5.8106 H   0  0  0  0  0  0  0  0  0  0  0  0
   18.3072   16.3029    2.4333 H   0  0  0  0  0  0  0  0  0  0  0  0
   19.6116   18.0929    1.2988 H   0  0  0  0  0  0  0  0  0  0  0  0
   21.6277   19.0558    2.3996 H   0  0  0  0  0  0  0  0  0  0  0  0
   22.3730   18.1917    4.6107 H   0  0  0  0  0  0  0  0  0  0  0  0
  3  2  2  0
  4  3  1  0
  4  1  1  0
  5  4  2  0
  6  5  1  0
  7  6  2  0
  7  2  1  0
  9  2  1  0
  9  8  1  0
 10  7  1  0
 11 10  1  0
 12  6  1  0
 13 12  1  0
 14  1  1  0
 15 14  1  0
 16 15  1  0
 17 16  1  0
 18 17  1  0
 19 18  1  0
 20 15  1  0
 20 19  2  0
 21 20  1  0
 22 21  2  0
 23 22  1  0
 24 23  2  0
 24 19  1  0
  1 25  1  0
  1 26  1  0
  3 27  1  0
  5 28  1  0
  8 29  1  0
  8 30  1  0
  8 31  1  0
 11 32  1  0
 11 33  1  0
 11 34  1  0
 13 35  1  0
 13 36  1  0
 13 37  1  0
 14 38  1  0
 14 39  1  0
 15 40  1  6
 16 41  1  0
 16 42  1  0
 17 43  1  0
 17 44  1  0
 18 45  1  0
 18 46  1  0
 21 47  1  0
 22 48  1  0
 23 49  1  0
 24 50  1  0
M  CHG  1  14   1
M  END
$$$$
=
     RDKit          3D

 29 31  0  0  0  0  0  0  0  0999 V2000
   19.5560   15.7840    3.8150 C   0  0  1  0  0  0  0  0  0  0  0  0
   19.4670   16.1180    2.3490 N   0  0  0  0  0  4  0  0  0  0  0  0
   19.4600   17.5860    2.0940 C   0  0  0  0  0  0  0  0  0  0  0  0
   20.7840   18.1930    2.5460 C   0  0  0  0  0  0  0  0  0  0  0  0
   21.2260   17.7100    3.9070 C   0  0  0  0  0  0  0  0  0  0  0  0
   20.6770   16.5490    4.4920 C   0  0  0  0  0  0  0  0  0  0  0  0
   21.1800   16.1010    5.7270 C   0  0  0  0  0  0  0  0  0  0  0  0
   22.2010   16.7980    6.3730 C   0  0  0  0  0  0  0  0  0  0  0  0
   22.7370   17.9440    5.7940 C   0  0  0  0  0  0  0  0  0  0  0  0
   22.2580   18.3960    4.5650 C   0  0  0  0  0  0  0  0  0  0  0  0
   16.3040   16.4270    5.5360 C   0  0  0  0  0  0  0  0  0  0  0  0
   16.1100   15.3550    4.6990 C   0  0  0  0  0  0  0  0  0  0  0  0
   17.2540   15.0630    4.0300 O   0  0  0  0  0  0  0  0  0  0  0  0
   18.2080   15.9530    4.4520 C   0  0  0  0  0  0  0  0  0  0  0  0
   17.6560   16.8180    5.3770 C   0  0  0  0  0  0  0  0  0  0  0  0
   19.8312   14.7268    3.9441 H   0  0  0  0  0  0  0  0  0  0  0  0
   20.2772   15.7035    1.8667 H   0  0  0  0  0  0  0  0  0  0  0  0
   18.5778   15.7363    1.9960 H   0  0  0  0  0  0  0  0  0  0  0  0
   19.3221   17.7695    1.0182 H   0  0  0  0  0  0  0  0  0  0  0  0
   18.6361   18.0493    2.6566 H   0  0  0  0  0  0  0  0  0  0  0  0
   21.5591   17.9273    1.8120 H   0  0  0  0  0  0  0  0  0  0  0  0
   20.6376   19.2809    2.6168 H   0  0  0  0  0  0  0  0  0  0  0  0
   20.7643   15.1926    6.1875 H   0  0  0  0  0  0  0  0  0  0  0  0
   22.5827   16.4413    7.3410 H   0  0  0  0  0  0  0  0  0  0  0  0
   23.5398   18.4942    6.3066 H   0  0  0  0  0  0  0  0  0  0  0  0
   22.6925   19.2972    4.1078 H   0  0  0  0  0  0  0  0  0  0  0  0
   15.5575   16.8898    6.1982 H   0  0  0  0  0  0  0  0  0  0  0  0
   15.1610   14.8101    4.5869 H   0  0  0  0  0  0  0  0  0  0  0  0
   18.1661   17.6472    5.8892 H   0  0  0  0  0  0  0  0  0  0  0  0
  2  1  1  0
  3  2  1  0
  4  3  1  0
  5  4  1  0
  6  1  1  0
  6  5  2  0
  7  6  1  0
  8  7  2  0
  9  8  1  0
 10  5  1  0
 10  9  2  0
 12 11  2  0
 13 12  1  0
 14 13  1  0
 14  1  1  0
 15 11  1  0
 15 14  2  0
  1 16  1  6
  2 17  1  0
  2 18  1  0
  3 19  1  0
  3 20  1  0
  4 21  1  0
  4 22  1  0
  7 23  1  0
  8 24  1  0
  9 25  1  0
 10 26  1  0
 11 27  1  0
 12 28  1  0
 15 29  1  0
M  CHG  1   2   1
M  END
$$$$
=
     RDKit          3D

 33 33  0  0  0  0  0  0  0  0999 V2000
   15.5970   15.0840    4.8840 C   0  0  0  0  0  0  0  0  0  0  0  0
   16.6820   14.6680    3.8950 C   0  0  0  0  0  0  0  0  0  0  0  0
   17.7080   15.7520    3.5840 C   0  0  0  0  0  0  0  0  0  0  0  0
   18.2890   16.3120    4.8690 N   0  0  0  0  0  4  0  0  0  0  0  0
   17.2000   16.8920    5.7490 C   0  0  0  0  0  0  0  0  0  0  0  0
   16.1670   15.8240    6.0900 C   0  0  0  0  0  0  0  0  0  0  0  0
   14.5230   15.8770    4.2140 N   0  0  0  0  0  4  0  0  0  0  0  0
   19.5310   17.2730    4.6530 C   0  0  0  0  0  0  0  0  0  0  0  0
   20.8190   16.4970    4.9860 C   0  0  0  0  0  0  0  0  0  0  0  0
   19.5930   17.6730    3.1680 C   0  0  0  0  0  0  0  0  0  0  0  0
   19.4080   18.5160    5.5410 C   0  0  0  0  0  0  0  0  0  0  0  0
   15.1415   14.1581    5.2652 H   0  0  0  0  0  0  0  0  0  0  0  0
   17.2147   13.8019    4.3146 H   0  0  0  0  0  0  0  0  0  0  0  0
   16.1701   14.4428    2.9478 H   0  0  0  0  0  0  0  0  0  0  0  0
   18.5180   15.3214    2.9770 H   0  0  0  0  0  0  0  0  0  0  0  0
   17.2136   16.5644    3.0312 H   0  0  0  0  0  0  0  0  0  0  0  0
   18.6960   15.5184    5.3842 H   0  0  0  0  0  0  0  0  0  0  0  0
   17.6491   17.2718    6.6786 H   0  0  0  0  0  0  0  0  0  0  0  0
   16.7020   17.7101    5.2080 H   0  0  0  0  0  0  0  0  0  0  0  0
   15.3341   16.3091    6.6200 H   0  0  0  0  0  0  0  0  0  0  0  0
   16.6868   15.0711    6.7007 H   0  0  0  0  0  0  0  0  0  0  0  0
   13.9257   16.3180    4.9279 H   0  0  0  0  0  0  0  0  0  0  0  0
   14.9509   16.6065    3.6260 H   0  0  0  0  0  0  0  0  0  0  0  0
   13.9518   15.2534    3.6260 H   0  0  0  0  0  0  0  0  0  0  0  0
   20.9336   16.4280    6.0778 H   0  0  0  0  0  0  0  0  0  0  0  0
   20.7582   15.4851    4.5590 H   0  0  0  0  0  0  0  0  0  0  0  0
   21.6852   17.0237    4.5590 H   0  0  0  0  0  0  0  0  0  0  0  0
   19.7610   18.7571    3.0870 H   0  0  0  0  0  0  0  0  0  0  0  0
   20.4187   17.1363    2.6779 H   0  0  0  0  0  0  0  0  0  0  0  0
   18.6436   17.4115    2.6779 H   0  0  0  0  0  0  0  0  0  0  0  0
   19.4377   18.2154    6.5987 H   0  0  0  0  0  0  0  0  0  0  0  0
   20.2428   19.2008    5.3308 H   0  0  0  0  0  0  0  0  0  0  0  0
   18.4552   19.0239    5.3308 H   0  0  0  0  0  0  0  0  0  0  0  0
  2  1  1  0
  3  2  1  0
  4  3  1  0
  5  4  1  0
  6  1  1  0
  6  5  1  0
  7  1  1  0
  8  4  1  0
  9  8  1  0
 10  8  1  0
 11  8  1  0
  1 12  1  0
  2 13  1  0
  2 14  1  0
  3 15  1  0
  3 16  1  0
  4 17  1  0
  5 18  1  0
  5 19  1  0
  6 20  1  0
  6 21  1  0
  7 22  1  0
  7 23  1  0
  7 24  1  0
  9 25  1  0
  9 26  1  0
  9 27  1  0
 10 28  1  0
 10 29  1  0
 10 30  1  0
 11 31  1  0
 11 32  1  0
 11 33  1  0
M  CHG  2   4   1   7   1
M  END
$$$$
=
     RDKit          3D

 33 33  0  0  0  0  0  0  0  0999 V2000
   19.9160   16.5570    3.8970 C   0  0  2  0  0  0  0  0  0  0  0  0
   20.2330   15.5340    4.9960 C   0  0  0  0  0  0  0  0  0  0  0  0
   21.6850   15.6560    5.4580 C   0  0  0  0  0  0  0  0  0  0  0  0
   22.0400   17.0730    5.9050 C   0  0  0  0  0  0  0  0  0  0  0  0
   21.6930   18.1140    4.8410 C   0  0  0  0  0  0  0  0  0  0  0  0
   20.2360   18.0210    4.3750 C   0  0  2  0  0  0  0  0  0  0  0  0
   19.3550   18.5040    5.4980 N   0  0  0  0  0  4  0  0  0  0  0  0
   18.4720   16.3810    3.4500 N   0  0  0  0  0  4  0  0  0  0  0  0
   17.6460   15.4210    4.2970 C   0  0  0  0  0  0  0  0  0  0  0  0
   16.6490   15.8320    6.5620 C   0  0  0  0  0  0  0  0  0  0  0  0
   16.5920   16.1880    5.0860 C   0  0  0  0  0  0  0  0  0  0  0  0
   20.5627   16.3788    3.0252 H   0  0  0  0  0  0  0  0  0  0  0  0
   19.5670   15.7098    5.8536 H   0  0  0  0  0  0  0  0  0  0  0  0
   20.0794   14.5239    4.5884 H   0  0  0  0  0  0  0  0  0  0  0  0
   21.8454   14.9693    6.3022 H   0  0  0  0  0  0  0  0  0  0  0  0
   22.3298   15.4039    4.6032 H   0  0  0  0  0  0  0  0  0  0  0  0
   21.4823   17.3054    6.8242 H   0  0  0  0  0  0  0  0  0  0  0  0
   23.1257   17.1125    6.0770 H   0  0  0  0  0  0  0  0  0  0  0  0
   21.8650   19.1164    5.2602 H   0  0  0  0  0  0  0  0  0  0  0  0
   22.3338   17.9226    3.9677 H   0  0  0  0  0  0  0  0  0  0  0  0
   20.0458   18.6639    3.5029 H   0  0  0  0  0  0  0  0  0  0  0  0
   19.7889   18.2661    6.4014 H   0  0  0  0  0  0  0  0  0  0  0  0
   19.2413   19.5254    5.4301 H   0  0  0  0  0  0  0  0  0  0  0  0
   18.4327   18.0506    5.4301 H   0  0  0  0  0  0  0  0  0  0  0  0
   18.0151   17.3037    3.4762 H   0  0  0  0  0  0  0  0  0  0  0  0
   18.5118   15.9698    2.5065 H   0  0  0  0  0  0  0  0  0  0  0  0
   17.1489   14.6923    3.6398 H   0  0  0  0  0  0  0  0  0  0  0  0
   18.3118   14.8996    5.0005 H   0  0  0  0  0  0  0  0  0  0  0  0
   16.5035   16.7409    7.1643 H   0  0  0  0  0  0  0  0  0  0  0  0
   15.8555   15.1067    6.7952 H   0  0  0  0  0  0  0  0  0  0  0  0
   17.6292   15.3907    6.7952 H   0  0  0  0  0  0  0  0  0  0  0  0
   16.7703   17.2672    4.9693 H   0  0  0  0  0  0  0  0  0  0  0  0
   15.5988   15.9168    4.6987 H   0  0  0  0  0  0  0  0  0  0  0  0
  2  1  1  0
  3  2  1  0
  4  3  1  0
  5  4  1  0
  6  5  1  0
  6  1  1  0
  7  6  1  0
  8  1  1  0
  9  8  1  0
 11  9  1  0
 11 10  1  0
  1 12  1  6
  2 13  1  0
  2 14  1  0
  3 15  1  0
  3 16  1  0
  4 17  1  0
  4 18  1  0
  5 19  1  0
  5 20  1  0
  6 21  1  6
  7 22  1  0
  7 23  1  0
  7 24  1  0
  8 25  1  0
  8 26  1  0
  9 27  1  0
  9 28  1  0
 10 29  1  0
 10 30  1  0
 10 31  1  0
 11 32  1  0
 11 33  1  0
M  CHG  2   7   1   8   1
M  END
$$$$
=
     RDKit          3D

 39 40  0  0  0  0  0  0  0  0999 V2000
   19.5910   15.9460    3.4870 C   0  0  0  0  0  0  0  0  0  0  0  0
   20.3000   15.5800    4.8290 C   0  0  0  0  0  0  0  0  0  0  0  0
   21.4600   16.5430    4.8740 C   0  0  1  0  0  0  0  0  0  0  0  0
   20.8390   17.8070    4.3120 C   0  0  2  0  0  0  0  0  0  0  0  0
   20.2230   17.2940    3.0310 C   0  0  0  0  0  0  0  0  0  0  0  0
   21.9980   18.7640    4.3690 C   0  0  0  0  0  0  0  0  0  0  0  0
   22.6280   18.3970    5.7110 N   0  0  0  0  0  4  0  0  0  0  0  0
   22.0730   17.0440    6.1540 C   0  0  0  0  0  0  0  0  0  0  0  0
   17.7140   13.8240    3.5310 O   0  0  0  0  0  0  0  0  0  0  0  0
   17.3350   14.9830    3.5290 C   0  0  0  0  0  0  0  0  0  0  0  0
   18.1570   16.0710    3.6490 N   0  0  0  0  0  0  0  0  0  0  0  0
   16.0640   15.4200    3.3970 O   0  0  0  0  0  0  0  0  0  0  0  0
   15.1030   15.2370    4.4700 C   0  0  0  0  0  0  0  0  0  0  0  0
   15.7640   15.3970    5.8430 C   0  0  0  0  0  0  0  0  0  0  0  0
   14.3720   13.8960    4.3380 C   0  0  0  0  0  0  0  0  0  0  0  0
   14.0840   16.3720    4.2790 C   0  0  0  0  0  0  0  0  0  0  0  0
   19.7345   15.1536    2.7377 H   0  0  0  0  0  0  0  0  0  0  0  0
   19.6270   15.7316    5.6858 H   0  0  0  0  0  0  0  0  0  0  0  0
   20.6097   14.5258    4.8820 H   0  0  0  0  0  0  0  0  0  0  0  0
   22.2779   15.9831    4.3969 H   0  0  0  0  0  0  0  0  0  0  0  0
   20.0205   18.3758    4.7773 H   0  0  0  0  0  0  0  0  0  0  0  0
   20.9878   17.1342    2.2567 H   0  0  0  0  0  0  0  0  0  0  0  0
   19.5009   17.9897    2.5787 H   0  0  0  0  0  0  0  0  0  0  0  0
   22.6982   18.5975    3.5371 H   0  0  0  0  0  0  0  0  0  0  0  0
   21.7112   19.8224    4.2819 H   0  0  0  0  0  0  0  0  0  0  0  0
   23.6512   18.3363    5.6094 H   0  0  0  0  0  0  0  0  0  0  0  0
   22.4056   19.1166    6.4136 H   0  0  0  0  0  0  0  0  0  0  0  0
   21.3169   17.1583    6.9448 H   0  0  0  0  0  0  0  0  0  0  0  0
   22.8253   16.3687    6.5876 H   0  0  0  0  0  0  0  0  0  0  0  0
   17.7492   16.9935    3.8579 H   0  0  0  0  0  0  0  0  0  0  0  0
   15.0189   15.2167    6.6319 H   0  0  0  0  0  0  0  0  0  0  0  0
   16.5851   14.6717    5.9414 H   0  0  0  0  0  0  0  0  0  0  0  0
   16.1625   16.4175    5.9414 H   0  0  0  0  0  0  0  0  0  0  0  0
   14.1544   13.4969    5.3397 H   0  0  0  0  0  0  0  0  0  0  0  0
   13.4299   14.0443    3.7898 H   0  0  0  0  0  0  0  0  0  0  0  0
   15.0071   13.1846    3.7898 H   0  0  0  0  0  0  0  0  0  0  0  0
   13.7549   16.7386    5.2625 H   0  0  0  0  0  0  0  0  0  0  0  0
   14.5523   17.1948    3.7189 H   0  0  0  0  0  0  0  0  0  0  0  0
   13.2157   15.9948    3.7189 H   0  0  0  0  0  0  0  0  0  0  0  0
  2  1  1  0
  3  2  1  0
  4  3  1  0
  5  1  1  0
  5  4  1  0
  6  4  1  0
  7  6  1  0
  8  3  1  0
  8  7  1  0
 10  9  2  0
 11 10  1  0
 11  1  1  0
 12 10  1  0
 13 12  1  0
 14 13  1  0
 15 13  1  0
 16 13  1  0
  1 17  1  0
  2 18  1  0
  2 19  1  0
  3 20  1  6
  4 21  1  1
  5 22  1  0
  5 23  1  0
  6 24  1  0
  6 25  1  0
  7 26  1  0
  7 27  1  0
  8 28  1  0
  8 29  1  0
 11 30  1  0
 14 31  1  0
 14 32  1  0
 14 33  1  0
 15 34  1  0
 15 35  1  0
 15 36  1  0
 16 37  1  0
 16 38  1  0
 16 39  1  0
M  CHG  1   7   1
M  END
$$$$
=
     RDKit          3D

 19 20  0  0  0  0  0  0  0  0999 V2000
   19.4910   17.7630    1.5820 O   0  0  0  0  0  0  0  0  0  0  0  0
   19.7450   17.1140    2.5760 C   0  0  0  0  0  0  0  0  0  0  0  0
   19.1790   15.9180    2.9540 N   0  0  0  0  0  0  0  0  0  0  0  0
   19.7330   15.3960    4.1790 C   0  0  0  0  0  0  0  0  0  0  0  0
   20.7130   16.4490    4.5770 C   0  0  0  0  0  0  0  0  0  0  0  0
   20.7260   17.4600    3.6090 C   0  0  0  0  0  0  0  0  0  0  0  0
   21.5660   18.5530    3.6720 C   0  0  0  0  0  0  0  0  0  0  0  0
   22.4440   18.6140    4.7510 C   0  0  0  0  0  0  0  0  0  0  0  0
   22.4420   17.6000    5.7310 C   0  0  0  0  0  0  0  0  0  0  0  0
   21.5380   16.5260    5.6870 C   0  0  0  0  0  0  0  0  0  0  0  0
   21.6420   15.4830    6.6070 N   0  0  0  0  0  0  0  0  0  0  0  0
   18.4373   15.4451    2.4181 H   0  0  0  0  0  0  0  0  0  0  0  0
   18.9531   15.2716    4.9446 H   0  0  0  0  0  0  0  0  0  0  0  0
   20.1880   14.4015    4.0609 H   0  0  0  0  0  0  0  0  0  0  0  0
   21.5430   19.3406    2.9044 H   0  0  0  0  0  0  0  0  0  0  0  0
   23.1435   19.4583    4.8395 H   0  0  0  0  0  0  0  0  0  0  0  0
   23.1699   17.6517    6.5541 H   0  0  0  0  0  0  0  0  0  0  0  0
   22.2659   15.5749    7.4214 H   0  0  0  0  0  0  0  0  0  0  0  0
   21.0949   14.6208    6.4721 H   0  0  0  0  0  0  0  0  0  0  0  0
  2  1  2  0
  3  2  1  0
  4  3  1  0
  5  4  1  0
  6  5  2  0
  6  2  1  0
  7  6  1  0
  8  7  2  0
  9  8  1  0
 10  5  1  0
 10  9  2  0
 11 10  1  0
  3 12  1  0
  4 13  1  0
  4 14  1  0
  7 15  1  0
  8 16  1  0
  9 17  1  0
 11 18  1  0
 11 19  1  0
M  END
$$$$
=
     RDKit          3D

 33 34  0  0  0  0  0  0  0  0999 V2000
   19.8820   14.6290    3.8850 O   0  0  0  0  0  0  0  0  0  0  0  0
   19.6370   15.7370    4.3580 C   0  0  0  0  0  0  0  0  0  0  0  0
   18.3710   16.1570    4.7720 N   0  0  0  0  0  0  0  0  0  0  0  0
   20.7450   16.7220    4.6000 C   0  0  0  0  0  0  0  0  0  0  0  0
   20.9120   17.8180    3.7310 C   0  0  0  0  0  0  0  0  0  0  0  0
   21.9030   18.7700    3.9700 C   0  0  0  0  0  0  0  0  0  0  0  0
   22.7470   18.6300    5.0650 C   0  0  0  0  0  0  0  0  0  0  0  0
   22.6090   17.5330    5.9170 C   0  0  0  0  0  0  0  0  0  0  0  0
   21.6050   16.5750    5.7120 C   0  0  0  0  0  0  0  0  0  0  0  0
   21.6230   15.4270    6.5180 N   0  0  0  0  0  0  0  0  0  0  0  0
   17.2520   15.3590    4.7750 N   0  0  0  0  0  0  0  0  0  0  0  0
   16.6700   15.1480    3.6360 C   0  0  0  0  0  0  0  0  0  0  0  0
   15.4930   14.2620    3.5230 C   0  0  0  0  0  0  0  0  0  0  0  0
   15.5320   13.1160    2.7180 C   0  0  0  0  0  0  0  0  0  0  0  0
   14.4110   12.2890    2.6180 C   0  0  0  0  0  0  0  0  0  0  0  0
   13.2470   12.6050    3.3220 C   0  0  0  0  0  0  0  0  0  0  0  0
   13.2140   13.7540    4.1240 C   0  0  0  0  0  0  0  0  0  0  0  0
   14.3340   14.5900    4.2300 C   0  0  0  0  0  0  0  0  0  0  0  0
   11.9900   14.0840    4.8660 N   0  0  0  0  0  4  0  0  0  0  0  0
   11.7260   13.4120    5.8710 O   0  0  0  0  0  0  0  0  0  0  0  0
   11.2960   15.0190    4.4420 O   0  0  0  0  0  1  0  0  0  0  0  0
   18.2692   17.1292    5.0966 H   0  0  0  0  0  0  0  0  0  0  0  0
   20.2545   17.9241    2.8555 H   0  0  0  0  0  0  0  0  0  0  0  0
   22.0162   19.6297    3.2932 H   0  0  0  0  0  0  0  0  0  0  0  0
   23.5240   19.3838    5.2604 H   0  0  0  0  0  0  0  0  0  0  0  0
   23.3003   17.4176    6.7648 H   0  0  0  0  0  0  0  0  0  0  0  0
   22.2695   15.3693    7.3178 H   0  0  0  0  0  0  0  0  0  0  0  0
   20.9897   14.6417    6.3100 H   0  0  0  0  0  0  0  0  0  0  0  0
   17.0613   15.6397    2.7332 H   0  0  0  0  0  0  0  0  0  0  0  0
   16.4484   12.8668    2.1630 H   0  0  0  0  0  0  0  0  0  0  0  0
   14.4449   11.3897    1.9854 H   0  0  0  0  0  0  0  0  0  0  0  0
   12.3618   11.9563    3.2476 H   0  0  0  0  0  0  0  0  0  0  0  0
   14.3007   15.4908    4.8605 H   0  0  0  0  0  0  0  0  0  0  0  0
  2  1  2  0
  3  2  1  0
  4  2  1  0
  5  4  2  0
  6  5  1  0
  7  6  2  0
  8  7  1  0
  9  4  1  0
  9  8  2  0
 10  9  1  0
 11  3  1  0
 12 11  2  0
 13 12  1  0
 14 13  2  0
 15 14  1  0
 16 15  2  0
 17 16  1  0
 18 17  2  0
 18 13  1  0
 19 17  1  0
 20 19  2  0
 21 19  1  0
  3 22  1  0
  5 23  1  0
  6 24  1  0
  7 25  1  0
  8 26  1  0
 10 27  1  0
 10 28  1  0
 12 29  1  0
 14 30  1  0
 15 31  1  0
 16 32  1  0
 18 33  1  0
M  CHG  2  19   1  21  -1
M  END
$$$$
=
     RDKit          3D

 34 34  0  0  0  0  0  0  0  0999 V2000
   19.5110   15.3900    5.2830 C   0  0  0  0  0  0  0  0  0  0  0  0
   18.8270   14.6850    4.2330 O   0  0  0  0  0  0  0  0  0  0  0  0
   17.0520   13.0980    2.7600 F   0  0  0  0  0  0  0  0  0  0  0  0
   16.5860   14.1280    3.4870 C   0  0  0  0  0  0  0  0  0  0  0  0
   15.2190   14.3740    3.5230 C   0  0  0  0  0  0  0  0  0  0  0  0
   14.7350   15.4200    4.3090 C   0  0  0  0  0  0  0  0  0  0  0  0
   15.6190   16.2030    5.0560 C   0  0  0  0  0  0  0  0  0  0  0  0
   16.9920   15.9510    5.0150 C   0  0  0  0  0  0  0  0  0  0  0  0
   17.4790   14.9260    4.2090 C   0  0  0  0  0  0  0  0  0  0  0  0
   20.7550   16.0960    4.6920 C   0  0  1  0  0  0  0  0  0  0  0  0
   20.5920   17.6130    4.3370 C   0  0  0  0  0  0  0  0  0  0  0  0
   19.7610   17.7750    3.0430 C   0  0  0  0  0  0  0  0  0  0  0  0
   19.8160   18.3260    5.4660 C   0  0  0  0  0  0  0  0  0  0  0  0
   21.9310   18.3460    4.1400 C   0  0  0  0  0  0  0  0  0  0  0  0
   21.8800   15.9060    5.6730 N   0  0  0  0  0  4  0  0  0  0  0  0
   18.8368   16.1393    5.7235 H   0  0  0  0  0  0  0  0  0  0  0  0
   19.8234   14.6805    6.0634 H   0  0  0  0  0  0  0  0  0  0  0  0
   14.5262   13.7510    2.9383 H   0  0  0  0  0  0  0  0  0  0  0  0
   13.6555   15.6288    4.3408 H   0  0  0  0  0  0  0  0  0  0  0  0
   15.2314   17.0221    5.6796 H   0  0  0  0  0  0  0  0  0  0  0  0
   17.6844   16.5588    5.6160 H   0  0  0  0  0  0  0  0  0  0  0  0
   20.9489   15.6289    3.7151 H   0  0  0  0  0  0  0  0  0  0  0  0
   18.7122   17.9795    3.3040 H   0  0  0  0  0  0  0  0  0  0  0  0
   20.1617   18.6119    2.4523 H   0  0  0  0  0  0  0  0  0  0  0  0
   19.8180   16.8488    2.4523 H   0  0  0  0  0  0  0  0  0  0  0  0
   20.1900   17.9823    6.4417 H   0  0  0  0  0  0  0  0  0  0  0  0
   19.9603   19.4131    5.3802 H   0  0  0  0  0  0  0  0  0  0  0  0
   18.7450   18.0904    5.3802 H   0  0  0  0  0  0  0  0  0  0  0  0
   22.3664   18.5844    5.1216 H   0  0  0  0  0  0  0  0  0  0  0  0
   22.6230   17.7009    3.5788 H   0  0  0  0  0  0  0  0  0  0  0  0
   21.7605   19.2766    3.5788 H   0  0  0  0  0  0  0  0  0  0  0  0
   21.5124   15.9681    6.6332 H   0  0  0  0  0  0  0  0  0  0  0  0
   22.3088   14.9807    5.5287 H   0  0  0  0  0  0  0  0  0  0  0  0
   22.5889   16.6392    5.5287 H   0  0  0  0  0  0  0  0  0  0  0  0
  2  1  1  0
  4  3  1  0
  5  4  2  0
  6  5  1  0
  7  6  2  0
  8  7  1  0
  9  8  2  0
  9  4  1  0
  9  2  1  0
 10  1  1  0
 11 10  1  0
 12 11  1  0
 13 11  1  0
 14 11  1  0
 15 10  1  0
  1 16  1  0
  1 17  1  0
  5 18  1  0
  6 19  1  0
  7 20  1  0
  8 21  1  0
 10 22  1  6
 12 23  1  0
 12 24  1  0
 12 25  1  0
 13 26  1  0
 13 27  1  0
 13 28  1  0
 14 29  1  0
 14 30  1  0
 14 31  1  0
 15 32  1  0
 15 33  1  0
 15 34  1  0
M  CHG  1  15   1
M  END
$$$$
=
     RDKit          3D

 35 36  0  0  0  0  0  0  0  0999 V2000
   19.2440   16.0410    5.0250 N   0  0  1  0  0  4  0  0  0  0  0  0
   18.3860   17.2690    5.3320 C   0  0  0  0  0  0  0  0  0  0  0  0
   17.0100   16.8280    5.8300 C   0  0  0  0  0  0  0  0  0  0  0  0
   16.3870   15.7540    4.9760 C   0  0  0  0  0  0  0  0  0  0  0  0
   17.1540   15.0130    4.0590 C   0  0  0  0  0  0  0  0  0  0  0  0
   18.6110   15.3110    3.8430 C   0  0  0  0  0  0  0  0  0  0  0  0
   16.5340   14.0160    3.2900 C   0  0  0  0  0  0  0  0  0  0  0  0
   15.1770   13.7400    3.4530 C   0  0  0  0  0  0  0  0  0  0  0  0
   14.4250   14.4580    4.3770 C   0  0  0  0  0  0  0  0  0  0  0  0
   15.0260   15.4600    5.1370 C   0  0  0  0  0  0  0  0  0  0  0  0
   20.7060   16.3920    4.8020 C   0  0  0  0  0  0  0  0  0  0  0  0
   21.4140   16.8660    6.1000 C   0  0  1  0  0  0  0  0  0  0  0  0
   21.8780   15.7650    6.8910 O   0  0  0  0  0  0  0  0  0  0  0  0
   22.6560   17.7190    5.7480 C   0  0  0  0  0  0  0  0  0  0  0  0
   22.2320   18.9450    5.0110 N   0  0  0  0  0  4  0  0  0  0  0  0
   19.2597   15.4118    5.8403 H   0  0  0  0  0  0  0  0  0  0  0  0
   18.8784   17.8739    6.1077 H   0  0  0  0  0  0  0  0  0  0  0  0
   18.2664   17.8665    4.4162 H   0  0  0  0  0  0  0  0  0  0  0  0
   17.1159   16.4425    6.8548 H   0  0  0  0  0  0  0  0  0  0  0  0
   16.3489   17.7061    5.7857 H   0  0  0  0  0  0  0  0  0  0  0  0
   19.1453   14.3620    3.6883 H   0  0  0  0  0  0  0  0  0  0  0  0
   18.6892   15.9692    2.9651 H   0  0  0  0  0  0  0  0  0  0  0  0
   17.1224   13.4486    2.5539 H   0  0  0  0  0  0  0  0  0  0  0  0
   14.7004   12.9532    2.8499 H   0  0  0  0  0  0  0  0  0  0  0  0
   13.3558   14.2350    4.5080 H   0  0  0  0  0  0  0  0  0  0  0  0
   14.4281   16.0239    5.8681 H   0  0  0  0  0  0  0  0  0  0  0  0
   21.2276   15.5012    4.4220 H   0  0  0  0  0  0  0  0  0  0  0  0
   20.7418   17.2229    4.0821 H   0  0  0  0  0  0  0  0  0  0  0  0
   20.6705   17.4452    6.6671 H   0  0  0  0  0  0  0  0  0  0  0  0
   21.7848   15.9863    7.8514 H   0  0  0  0  0  0  0  0  0  0  0  0
   23.1741   18.0098    6.6738 H   0  0  0  0  0  0  0  0  0  0  0  0
   23.3348   17.1296    5.1141 H   0  0  0  0  0  0  0  0  0  0  0  0
   21.9776   19.6805    5.6857 H   0  0  0  0  0  0  0  0  0  0  0  0
   23.0076   19.2753    4.4192 H   0  0  0  0  0  0  0  0  0  0  0  0
   21.4180   18.7256    4.4192 H   0  0  0  0  0  0  0  0  0  0  0  0
  2  1  1  0
  3  2  1  0
  4  3  1  0
  5  4  2  0
  6  5  1  0
  6  1  1  0
  7  5  1  0
  8  7  2  0
  9  8  1  0
 10  9  2  0
 10  4  1  0
 11  1  1  0
 12 11  1  0
 13 12  1  0
 14 12  1  0
 15 14  1  0
  1 16  1  1
  2 17  1  0
  2 18  1  0
  3 19  1  0
  3 20  1  0
  6 21  1  0
  6 22  1  0
  7 23  1  0
  8 24  1  0
  9 25  1  0
 10 26  1  0
 11 27  1  0
 11 28  1  0
 12 29  1  1
 13 30  1  0
 14 31  1  0
 14 32  1  0
 15 33  1  0
 15 34  1  0
 15 35  1  0
M  CHG  2   1   1  15   1
M  END
$$$$
=
     RDKit          3D

 27 28  0  0  0  0  0  0  0  0999 V2000
   19.7500   15.8790    4.6360 C   0  0  0  0  0  0  0  0  0  0  0  0
   19.5790   14.9080    5.6330 C   0  0  0  0  0  0  0  0  0  0  0  0
   20.4400   14.8990    6.7130 C   0  0  0  0  0  0  0  0  0  0  0  0
   21.4370   15.7840    6.8630 N   0  0  0  0  0  0  0  0  0  0  0  0
   21.6260   16.7150    5.8990 C   0  0  0  0  0  0  0  0  0  0  0  0
   20.7950   16.8210    4.7730 C   0  0  0  0  0  0  0  0  0  0  0  0
   21.0820   17.8600    3.7120 C   0  0  0  0  0  0  0  0  0  0  0  0
   22.0220   18.9770    4.1620 C   0  0  0  0  0  0  0  0  0  0  0  0
   23.2250   18.3990    4.8910 C   0  0  0  0  0  0  0  0  0  0  0  0
   22.7650   17.6720    6.1490 C   0  0  0  0  0  0  0  0  0  0  0  0
   18.7830   15.9040    3.4870 C   0  0  0  0  0  0  0  0  0  0  0  0
   17.4830   15.3150    3.8790 N   0  0  0  0  0  4  0  0  0  0  0  0
   18.7716   14.1649    5.5562 H   0  0  0  0  0  0  0  0  0  0  0  0
   20.3016   14.1296    7.4869 H   0  0  0  0  0  0  0  0  0  0  0  0
   21.5379   17.3534    2.8485 H   0  0  0  0  0  0  0  0  0  0  0  0
   20.1205   18.3365    3.4704 H   0  0  0  0  0  0  0  0  0  0  0  0
   22.3675   19.5366    3.2803 H   0  0  0  0  0  0  0  0  0  0  0  0
   21.4786   19.6453    4.8462 H   0  0  0  0  0  0  0  0  0  0  0  0
   23.7471   17.6913    4.2303 H   0  0  0  0  0  0  0  0  0  0  0  0
   23.9067   19.2154    5.1717 H   0  0  0  0  0  0  0  0  0  0  0  0
   22.4375   18.4206    6.8855 H   0  0  0  0  0  0  0  0  0  0  0  0
   23.6165   17.0788    6.5137 H   0  0  0  0  0  0  0  0  0  0  0  0
   18.6259   16.9458    3.1709 H   0  0  0  0  0  0  0  0  0  0  0  0
   19.2029   15.3115    2.6608 H   0  0  0  0  0  0  0  0  0  0  0  0
   17.4157   15.2845    4.9063 H   0  0  0  0  0  0  0  0  0  0  0  0
   16.7172   15.8913    3.5017 H   0  0  0  0  0  0  0  0  0  0  0  0
   17.4114   14.3593    3.5017 H   0  0  0  0  0  0  0  0  0  0  0  0
  2  1  2  0
  3  2  1  0
  4  3  2  0
  5  4  1  0
  6  1  1  0
  6  5  2  0
  7  6  1  0
  8  7  1  0
  9  8  1  0
 10  5  1  0
 10  9  1  0
 11  1  1  0
 12 11  1  0
  2 13  1  0
  3 14  1  0
  7 15  1  0
  7 16  1  0
  8 17  1  0
  8 18  1  0
  9 19  1  0
  9 20  1  0
 10 21  1  0
 10 22  1  0
 11 23  1  0
 11 24  1  0
 12 25  1  0
 12 26  1  0
 12 27  1  0
M  CHG  1  12   1
M  END
$$$$
=
     RDKit          3D

 34 36  0  0  0  0  0  0  0  0999 V2000
   18.7350   14.2460    3.8400 C   0  0  0  0  0  0  0  0  0  0  0  0
   18.9550   14.0150    5.1680 N   0  0  0  0  0  0  0  0  0  0  0  0
   19.8170   14.9050    5.6650 N   0  0  0  0  0  0  0  0  0  0  0  0
   20.1110   15.6740    4.6080 C   0  0  0  0  0  0  0  0  0  0  0  0
   19.4500   15.2850    3.4560 N   0  0  0  0  0  0  0  0  0  0  0  0
   21.0320   16.8050    4.6490 C   0  0  0  0  0  0  0  0  0  0  0  0
   21.0000   17.7890    3.6470 C   0  0  0  0  0  0  0  0  0  0  0  0
   21.8810   18.8750    3.6830 C   0  0  0  0  0  0  0  0  0  0  0  0
   22.8030   18.9860    4.7220 C   0  0  0  0  0  0  0  0  0  0  0  0
   22.8350   18.0130    5.7130 C   0  0  0  0  0  0  0  0  0  0  0  0
   21.9640   16.9290    5.6870 C   0  0  0  0  0  0  0  0  0  0  0  0
   23.7210   18.1210    6.7110 F   0  0  0  0  0  0  0  0  0  0  0  0
   17.8190   13.4460    2.9790 C   0  0  2  0  0  0  0  0  0  0  0  0
   12.3330   14.1120    4.1700 F   0  0  0  0  0  0  0  0  0  0  0  0
   13.6300   13.9610    3.8850 C   0  0  0  0  0  0  0  0  0  0  0  0
   14.5050   15.0220    4.0880 C   0  0  0  0  0  0  0  0  0  0  0  0
   15.8600   14.8680    3.7920 C   0  0  0  0  0  0  0  0  0  0  0  0
   16.3480   13.6460    3.2820 C   0  0  0  0  0  0  0  0  0  0  0  0
   15.4430   12.5860    3.0920 C   0  0  0  0  0  0  0  0  0  0  0  0
   14.0880   12.7470    3.3890 C   0  0  0  0  0  0  0  0  0  0  0  0
   18.1770   12.0060    3.1080 N   0  0  0  0  0  4  0  0  0  0  0  0
   18.5161   13.2581    5.7114 H   0  0  0  0  0  0  0  0  0  0  0  0
   20.2741   17.7046    2.8249 H   0  0  0  0  0  0  0  0  0  0  0  0
   21.8461   19.6396    2.8930 H   0  0  0  0  0  0  0  0  0  0  0  0
   23.4994   19.8367    4.7571 H   0  0  0  0  0  0  0  0  0  0  0  0
   22.0071   16.1693    6.4814 H   0  0  0  0  0  0  0  0  0  0  0  0
   17.9572   13.8016    1.9473 H   0  0  0  0  0  0  0  0  0  0  0  0
   14.1308   15.9791    4.4804 H   0  0  0  0  0  0  0  0  0  0  0  0
   16.5533   15.7058    3.9575 H   0  0  0  0  0  0  0  0  0  0  0  0
   15.8058   11.6219    2.7061 H   0  0  0  0  0  0  0  0  0  0  0  0
   13.3857   11.9153    3.2307 H   0  0  0  0  0  0  0  0  0  0  0  0
   18.2392   11.7557    4.1052 H   0  0  0  0  0  0  0  0  0  0  0  0
   17.4535   11.4303    2.6540 H   0  0  0  0  0  0  0  0  0  0  0  0
   19.0858   11.8362    2.6540 H   0  0  0  0  0  0  0  0  0  0  0  0
  2  1  1  0
  3  2  1  0
  4  3  2  0
  5  4  1  0
  5  1  2  0
  6  4  1  0
  7  6  2  0
  8  7  1  0
  9  8  2  0
 10  9  1  0
 11  6  1  0
 11 10  2  0
 12 10  1  0
 13  1  1  0
 15 14  1  0
 16 15  2  0
 17 16  1  0
 18 17  2  0
 18 13  1  0
 19 18  1  0
 20 19  2  0
 20 15  1  0
 21 13  1  0
  2 22  1  0
  7 23  1  0
  8 24  1  0
  9 25  1  0
 11 26  1  0
 13 27  1  6
 16 28  1  0
 17 29  1  0
 19 30  1  0
 20 31  1  0
 21 32  1  0
 21 33  1  0
 21 34  1  0
M  CHG  1  21   1
M  END
$$$$
=
     RDKit          3D

 40 41  0  0  0  0  0  0  0  0999 V2000
   27.1020   25.6960   13.8320 N   0  0  2  0  0  4  0  0  0  0  0  0
   27.5410   24.4660   13.0400 C   0  0  1  0  0  0  0  0  0  0  0  0
   26.5160   23.3160   12.9030 C   0  0  0  0  0  0  0  0  0  0  0  0
   26.9370   22.5800   11.6520 N   0  0  0  0  0  4  0  0  0  0  0  0
   28.0520   23.3520   11.0010 C   0  0  0  0  0  0  0  0  0  0  0  0
   27.9130   24.7510   11.5880 C   0  0  0  0  0  0  0  0  0  0  0  0
   25.3140   26.6830   15.3610 C   0  0  0  0  0  0  0  0  0  0  0  0
   25.5810   25.7970   14.1420 C   0  0  0  0  0  0  0  0  0  0  0  0
   24.8490   26.4080   12.9410 C   0  0  0  0  0  0  0  0  0  0  0  0
   27.6620   27.0510   13.3380 C   0  0  0  0  0  0  0  0  0  0  0  0
   28.6570   27.6760   14.2790 C   0  0  0  0  0  0  0  0  0  0  0  0
   29.6160   26.8990   14.9520 C   0  0  0  0  0  0  0  0  0  0  0  0
   30.5300   27.4970   15.8220 C   0  0  0  0  0  0  0  0  0  0  0  0
   30.4870   28.8690   16.0470 C   0  0  0  0  0  0  0  0  0  0  0  0
   29.5200   29.6470   15.4170 C   0  0  0  0  0  0  0  0  0  0  0  0
   28.6050   29.0540   14.5460 C   0  0  0  0  0  0  0  0  0  0  0  0
   27.5649   25.5051   14.7321 H   0  0  0  0  0  0  0  0  0  0  0  0
   28.3924   24.1665   13.6688 H   0  0  0  0  0  0  0  0  0  0  0  0
   26.5587   22.6510   13.7782 H   0  0  0  0  0  0  0  0  0  0  0  0
   25.4809   23.6835   12.8434 H   0  0  0  0  0  0  0  0  0  0  0  0
   27.2651   21.6351   11.8978 H   0  0  0  0  0  0  0  0  0  0  0  0
   26.1398   22.4955   11.0053 H   0  0  0  0  0  0  0  0  0  0  0  0
   29.0301   22.9163   11.2530 H   0  0  0  0  0  0  0  0  0  0  0  0
   27.9925   23.3426    9.9027 H   0  0  0  0  0  0  0  0  0  0  0  0
   28.8608   25.3054   11.5222 H   0  0  0  0  0  0  0  0  0  0  0  0
   27.1762   25.3756   11.0616 H   0  0  0  0  0  0  0  0  0  0  0  0
   25.4884   26.1044   16.2801 H   0  0  0  0  0  0  0  0  0  0  0  0
   25.9908   27.5499   15.3395 H   0  0  0  0  0  0  0  0  0  0  0  0
   24.2709   27.0316   15.3395 H   0  0  0  0  0  0  0  0  0  0  0  0
   25.2176   24.7797   14.3493 H   0  0  0  0  0  0  0  0  0  0  0  0
   24.0504   27.0746   13.2987 H   0  0  0  0  0  0  0  0  0  0  0  0
   25.5613   26.9834   12.3314 H   0  0  0  0  0  0  0  0  0  0  0  0
   24.4102   25.6043   12.3314 H   0  0  0  0  0  0  0  0  0  0  0  0
   28.1556   26.8896   12.3683 H   0  0  0  0  0  0  0  0  0  0  0  0
   26.8100   27.7431   13.2664 H   0  0  0  0  0  0  0  0  0  0  0  0
   29.6466   25.8111   14.7920 H   0  0  0  0  0  0  0  0  0  0  0  0
   31.2862   26.8813   16.3309 H   0  0  0  0  0  0  0  0  0  0  0  0
   31.2169   29.3389   16.7226 H   0  0  0  0  0  0  0  0  0  0  0  0
   29.4770   30.7298   15.6057 H   0  0  0  0  0  0  0  0  0  0  0  0
   27.8343   29.6728   14.0631 H   0  0  0  0  0  0  0  0  0  0  0  0
  2  1  1  0
  3  2  1  0
  4  3  1  0
  5  4  1  0
  6  5  1  0
  6  2  1  0
  8  7  1  0
  8  1  1  0
  9  8  1  0
 10  1  1  0
 11 10  1  0
 12 11  2  0
 13 12  1  0
 14 13  2  0
 15 14  1  0
 16 15  2  0
 16 11  1  0
  1 17  1  1
  2 18  1  1
  3 19  1  0
  3 20  1  0
  4 21  1  0
  4 22  1  0
  5 23  1  0
  5 24  1  0
  6 25  1  0
  6 26  1  0
  7 27  1  0
  7 28  1  0
  7 29  1  0
  8 30  1  0
  9 31  1  0
  9 32  1  0
  9 33  1  0
 10 34  1  0
 10 35  1  0
 12 36  1  0
 13 37  1  0
 14 38  1  0
 15 39  1  0
 16 40  1  0
M  CHG  2   1   1   4   1
M  END
$$$$
=
     RDKit          3D

 40 41  0  0  0  0  0  0  0  0999 V2000
   17.2190   14.5860    4.2190 C   0  0  2  0  0  0  0  0  0  0  0  0
   17.0300   15.7080    5.2450 C   0  0  0  0  0  0  0  0  0  0  0  0
   18.3360   16.1670    5.9070 C   0  0  2  0  0  0  0  0  0  0  0  0
   18.7280   17.6010    5.4900 C   0  0  0  0  0  0  0  0  0  0  0  0
   18.9660   17.6820    4.0780 O   0  0  0  0  0  0  0  0  0  0  0  0
   20.0100   16.7960    3.6500 C   0  0  0  0  0  0  0  0  0  0  0  0
   19.6630   15.3290    3.9880 C   0  0  2  0  0  0  0  0  0  0  0  0
   18.3870   14.8580    3.2710 C   0  0  0  0  0  0  0  0  0  0  0  0
   19.4590   15.2430    5.4860 N   0  0  0  0  0  4  0  0  0  0  0  0
   16.5140   12.1490    3.0060 O   0  0  0  0  0  0  0  0  0  0  0  0
   15.7240   13.0790    2.9840 C   0  0  0  0  0  0  0  0  0  0  0  0
   15.9980   14.3190    3.4920 N   0  0  0  0  0  0  0  0  0  0  0  0
   14.4670   13.0740    2.4980 O   0  0  0  0  0  0  0  0  0  0  0  0
   13.3350   12.8020    3.3660 C   0  0  0  0  0  0  0  0  0  0  0  0
   13.6110   11.6010    4.2790 C   0  0  0  0  0  0  0  0  0  0  0  0
   12.1870   12.4400    2.4110 C   0  0  0  0  0  0  0  0  0  0  0  0
   12.9360   14.0480    4.1640 C   0  0  0  0  0  0  0  0  0  0  0  0
   17.4739   13.6784    4.7859 H   0  0  0  0  0  0  0  0  0  0  0  0
   16.5771   16.5714    4.7356 H   0  0  0  0  0  0  0  0  0  0  0  0
   16.3889   15.3074    6.0440 H   0  0  0  0  0  0  0  0  0  0  0  0
   18.1755   16.1455    6.9950 H   0  0  0  0  0  0  0  0  0  0  0  0
   17.9116   18.2884    5.7566 H   0  0  0  0  0  0  0  0  0  0  0  0
   19.6536   17.8769    6.0164 H   0  0  0  0  0  0  0  0  0  0  0  0
   20.1412   16.8933    2.5622 H   0  0  0  0  0  0  0  0  0  0  0  0
   20.9376   17.0671    4.1754 H   0  0  0  0  0  0  0  0  0  0  0  0
   20.4836   14.6787    3.6507 H   0  0  0  0  0  0  0  0  0  0  0  0
   18.0815   15.6368    2.5568 H   0  0  0  0  0  0  0  0  0  0  0  0
   18.6280   13.9068    2.7738 H   0  0  0  0  0  0  0  0  0  0  0  0
   19.2192   14.2748    5.7430 H   0  0  0  0  0  0  0  0  0  0  0  0
   20.3271   15.5250    5.9632 H   0  0  0  0  0  0  0  0  0  0  0  0
   15.3185   15.0806    3.3534 H   0  0  0  0  0  0  0  0  0  0  0  0
   13.5387   11.9156    5.3306 H   0  0  0  0  0  0  0  0  0  0  0  0
   12.8708   10.8119    4.0806 H   0  0  0  0  0  0  0  0  0  0  0  0
   14.6215   11.2142    4.0806 H   0  0  0  0  0  0  0  0  0  0  0  0
   11.2983   12.1598    2.9956 H   0  0  0  0  0  0  0  0  0  0  0  0
   11.9503   13.3071    1.7769 H   0  0  0  0  0  0  0  0  0  0  0  0
   12.4905   11.5940    1.7769 H   0  0  0  0  0  0  0  0  0  0  0  0
   13.0052   13.8318    5.2403 H   0  0  0  0  0  0  0  0  0  0  0  0
   13.6135   14.8772    3.9122 H   0  0  0  0  0  0  0  0  0  0  0  0
   11.9028   14.3294    3.9122 H   0  0  0  0  0  0  0  0  0  0  0  0
  2  1  1  0
  3  2  1  0
  4  3  1  0
  5  4  1  0
  6  5  1  0
  7  6  1  0
  8  7  1  0
  8  1  1  0
  9  7  1  0
  9  3  1  0
 11 10  2  0
 12 11  1  0
 12  1  1  0
 13 11  1  0
 14 13  1  0
 15 14  1  0
 16 14  1  0
 17 14  1  0
  1 18  1  1
  2 19  1  0
  2 20  1  0
  3 21  1  1
  4 22  1  0
  4 23  1  0
  6 24  1  0
  6 25  1  0
  7 26  1  6
  8 27  1  0
  8 28  1  0
  9 29  1  0
  9 30  1  0
 12 31  1  0
 15 32  1  0
 15 33  1  0
 15 34  1  0
 16 35  1  0
 16 36  1  0
 16 37  1  0
 17 38  1  0
 17 39  1  0
 17 40  1  0
M  CHG  1   9   1
M  END
$$$$
=
     RDKit          3D

 18 19  0  0  0  0  0  0  0  0999 V2000
   22.6190   18.0040    5.2620 C   0  0  0  0  0  0  0  0  0  0  0  0
   21.7040   18.1680    4.2160 C   0  0  0  0  0  0  0  0  0  0  0  0
   20.5440   17.3930    4.1450 C   0  0  0  0  0  0  0  0  0  0  0  0
   20.4340   16.4420    5.1530 C   0  0  0  0  0  0  0  0  0  0  0  0
   21.3810   16.3310    6.1650 C   0  0  0  0  0  0  0  0  0  0  0  0
   22.4790   17.1090    6.2460 N   0  0  0  0  0  0  0  0  0  0  0  0
   21.0500   15.3350    7.0460 N   0  0  0  0  0  0  0  0  0  0  0  0
   19.9300   14.8290    6.5830 C   0  0  0  0  0  0  0  0  0  0  0  0
   19.5230   15.4630    5.4430 N   0  0  0  0  0  0  0  0  0  0  0  0
   23.7690   18.8140    5.2890 N   0  0  0  0  0  0  0  0  0  0  0  0
   19.6450   17.5300    3.0890 N   0  0  0  0  0  0  0  0  0  0  0  0
   21.9014   18.9193    3.4372 H   0  0  0  0  0  0  0  0  0  0  0  0
   19.3864   13.9972    7.0548 H   0  0  0  0  0  0  0  0  0  0  0  0
   18.6778   15.2424    4.8971 H   0  0  0  0  0  0  0  0  0  0  0  0
   24.4550   18.7092    6.0502 H   0  0  0  0  0  0  0  0  0  0  0  0
   23.9250   19.5118    4.5476 H   0  0  0  0  0  0  0  0  0  0  0  0
   18.7958   16.9480    3.0568 H   0  0  0  0  0  0  0  0  0  0  0  0
   19.8298   18.2132    2.3407 H   0  0  0  0  0  0  0  0  0  0  0  0
  2  1  2  0
  3  2  1  0
  4  3  2  0
  5  4  1  0
  6  5  2  0
  6  1  1  0
  7  5  1  0
  8  7  2  0
  9  8  1  0
  9  4  1  0
 10  1  1  0
 11  3  1  0
  2 12  1  0
  8 13  1  0
  9 14  1  0
 10 15  1  0
 10 16  1  0
 11 17  1  0
 11 18  1  0
M  END
$$$$
=
     RDKit          3D

 42 42  0  0  0  0  0  0  0  0999 V2000
   18.6050   15.1660    4.6990 N   0  0  2  0  0  4  0  0  0  0  0  0
   18.8720   15.1590    6.2080 C   0  0  0  0  0  0  0  0  0  0  0  0
   20.3240   14.8320    6.5060 C   0  0  0  0  0  0  0  0  0  0  0  0
   19.8180   15.7110    3.9210 C   0  0  0  0  0  0  0  0  0  0  0  0
   19.6900   17.2140    3.4850 C   0  0  2  0  0  0  0  0  0  0  0  0
   19.7090   17.3620    1.9850 N   0  0  0  0  0  4  0  0  0  0  0  0
   20.8510   18.0310    4.0750 C   0  0  0  0  0  0  0  0  0  0  0  0
   19.2100   18.8700    5.7940 C   0  0  0  0  0  0  0  0  0  0  0  0
   20.6430   18.4280    5.5400 C   0  0  0  0  0  0  0  0  0  0  0  0
   17.3210   15.9710    4.3910 C   0  0  0  0  0  0  0  0  0  0  0  0
   16.1460   15.0790    4.1060 C   0  0  0  0  0  0  0  0  0  0  0  0
   14.8910   15.3570    4.6710 C   0  0  0  0  0  0  0  0  0  0  0  0
   13.8140   14.4970    4.4510 C   0  0  0  0  0  0  0  0  0  0  0  0
   13.9790   13.3580    3.6650 C   0  0  0  0  0  0  0  0  0  0  0  0
   15.2150   13.0830    3.0830 C   0  0  0  0  0  0  0  0  0  0  0  0
   16.2940   13.9410    3.2960 C   0  0  0  0  0  0  0  0  0  0  0  0
   18.4586   14.1957    4.3860 H   0  0  0  0  0  0  0  0  0  0  0  0
   18.6359   16.1517    6.6189 H   0  0  0  0  0  0  0  0  0  0  0  0
   18.2388   14.3877    6.6706 H   0  0  0  0  0  0  0  0  0  0  0  0
   20.4761   14.7977    7.5949 H   0  0  0  0  0  0  0  0  0  0  0  0
   20.5767   13.8544    6.0695 H   0  0  0  0  0  0  0  0  0  0  0  0
   20.9714   15.6068    6.0695 H   0  0  0  0  0  0  0  0  0  0  0  0
   20.7081   15.6132    4.5599 H   0  0  0  0  0  0  0  0  0  0  0  0
   19.8864   15.1213    2.9949 H   0  0  0  0  0  0  0  0  0  0  0  0
   18.7264   17.5857    3.8635 H   0  0  0  0  0  0  0  0  0  0  0  0
   19.8364   18.3542    1.7395 H   0  0  0  0  0  0  0  0  0  0  0  0
   20.4859   16.8094    1.5953 H   0  0  0  0  0  0  0  0  0  0  0  0
   18.8177   17.0236    1.5953 H   0  0  0  0  0  0  0  0  0  0  0  0
   21.7694   17.4296    4.0053 H   0  0  0  0  0  0  0  0  0  0  0  0
   20.9148   18.9637    3.4953 H   0  0  0  0  0  0  0  0  0  0  0  0
   19.0300   18.9255    6.8778 H   0  0  0  0  0  0  0  0  0  0  0  0
   19.0465   19.8603    5.3440 H   0  0  0  0  0  0  0  0  0  0  0  0
   18.5171   18.1438    5.3440 H   0  0  0  0  0  0  0  0  0  0  0  0
   20.8706   17.5638    6.1813 H   0  0  0  0  0  0  0  0  0  0  0  0
   21.3123   19.2700    5.7702 H   0  0  0  0  0  0  0  0  0  0  0  0
   17.0830   16.6038    5.2587 H   0  0  0  0  0  0  0  0  0  0  0  0
   17.5101   16.5773    3.4929 H   0  0  0  0  0  0  0  0  0  0  0  0
   14.7561   16.2565    5.2897 H   0  0  0  0  0  0  0  0  0  0  0  0
   12.8338   14.7184    4.8985 H   0  0  0  0  0  0  0  0  0  0  0  0
   13.1321   12.6748    3.5037 H   0  0  0  0  0  0  0  0  0  0  0  0
   15.3399   12.1885    2.4551 H   0  0  0  0  0  0  0  0  0  0  0  0
   17.2655   13.7254    2.8274 H   0  0  0  0  0  0  0  0  0  0  0  0
  2  1  1  0
  3  2  1  0
  4  1  1  0
  5  4  1  0
  6  5  1  0
  7  5  1  0
  9  7  1  0
  9  8  1  0
 10  1  1  0
 11 10  1  0
 12 11  2  0
 13 12  1  0
 14 13  2  0
 15 14  1  0
 16 15  2  0
 16 11  1  0
  1 17  1  6
  2 18  1  0
  2 19  1  0
  3 20  1  0
  3 21  1  0
  3 22  1  0
  4 23  1  0
  4 24  1  0
  5 25  1  1
  6 26  1  0
  6 27  1  0
  6 28  1  0
  7 29  1  0
  7 30  1  0
  8 31  1  0
  8 32  1  0
  8 33  1  0
  9 34  1  0
  9 35  1  0
 10 36  1  0
 10 37  1  0
 12 38  1  0
 13 39  1  0
 14 40  1  0
 15 41  1  0
 16 42  1  0
M  CHG  2   1   1   6   1
M  END
$$$$
=
     RDKit          3D

 35 35  0  0  0  0  0  0  0  0999 V2000
   20.2270   15.9380    4.1480 C   0  0  0  0  0  0  0  0  0  0  0  0
   19.3080   15.0440    4.7460 C   0  0  0  0  0  0  0  0  0  0  0  0
   19.5180   14.6200    6.0620 C   0  0  0  0  0  0  0  0  0  0  0  0
   20.6060   15.1020    6.7840 C   0  0  0  0  0  0  0  0  0  0  0  0
   21.4830   16.0250    6.2090 C   0  0  0  0  0  0  0  0  0  0  0  0
   21.2990   16.4640    4.8950 C   0  0  0  0  0  0  0  0  0  0  0  0
   19.4460   17.6200    2.6660 C   0  0  0  0  0  0  0  0  0  0  0  0
   19.9170   16.2760    2.8440 O   0  0  0  0  0  0  0  0  0  0  0  0
   22.0740   17.4180    4.2950 O   0  0  0  0  0  0  0  0  0  0  0  0
   22.9100   18.2210    5.1250 C   0  0  0  0  0  0  0  0  0  0  0  0
   18.1240   14.5460    3.9690 C   0  0  0  0  0  0  0  0  0  0  0  0
   18.4830   13.3330    3.1550 N   0  0  0  0  0  4  0  0  0  0  0  0
   17.3860   12.3890    2.7950 C   0  0  0  0  0  0  0  0  0  0  0  0
   15.9880   13.0610    2.7640 C   0  0  0  0  0  0  0  0  0  0  0  0
   14.8710   12.0690    2.8040 N   0  0  0  0  0  4  0  0  0  0  0  0
   18.8230   13.9052    6.5268 H   0  0  0  0  0  0  0  0  0  0  0  0
   20.7763   14.7541    7.8135 H   0  0  0  0  0  0  0  0  0  0  0  0
   22.3285   16.4108    6.7975 H   0  0  0  0  0  0  0  0  0  0  0  0
   19.2831   18.0847    3.6496 H   0  0  0  0  0  0  0  0  0  0  0  0
   20.1945   18.1997    2.1060 H   0  0  0  0  0  0  0  0  0  0  0  0
   18.4993   17.6056    2.1060 H   0  0  0  0  0  0  0  0  0  0  0  0
   22.6896   18.0093    6.1817 H   0  0  0  0  0  0  0  0  0  0  0  0
   23.9649   17.9889    4.9169 H   0  0  0  0  0  0  0  0  0  0  0  0
   22.7206   19.2844    4.9169 H   0  0  0  0  0  0  0  0  0  0  0  0
   17.3187   14.2827    4.6705 H   0  0  0  0  0  0  0  0  0  0  0  0
   17.7950   15.3418    3.2845 H   0  0  0  0  0  0  0  0  0  0  0  0
   18.9028   13.6662    2.2755 H   0  0  0  0  0  0  0  0  0  0  0  0
   19.1069   12.7859    3.7652 H   0  0  0  0  0  0  0  0  0  0  0  0
   17.5960   11.9724    1.7988 H   0  0  0  0  0  0  0  0  0  0  0  0
   17.3573   11.6096    3.5707 H   0  0  0  0  0  0  0  0  0  0  0  0
   15.8983   13.7274    3.6346 H   0  0  0  0  0  0  0  0  0  0  0  0
   15.9065   13.6156    1.8175 H   0  0  0  0  0  0  0  0  0  0  0  0
   14.6338   11.8584    3.7839 H   0  0  0  0  0  0  0  0  0  0  0  0
   14.0462   12.4613    2.3278 H   0  0  0  0  0  0  0  0  0  0  0  0
   15.1631   11.2037    2.3278 H   0  0  0  0  0  0  0  0  0  0  0  0
  2  1  2  0
  3  2  1  0
  4  3  2  0
  5  4  1  0
  6  1  1  0
  6  5  2  0
  8  1  1  0
  8  7  1  0
  9  6  1  0
 10  9  1  0
 11  2  1  0
 12 11  1  0
 13 12  1  0
 14 13  1  0
 15 14  1  0
  3 16  1  0
  4 17  1  0
  5 18  1  0
  7 19  1  0
  7 20  1  0
  7 21  1  0
 10 22  1  0
 10 23  1  0
 10 24  1  0
 11 25  1  0
 11 26  1  0
 12 27  1  0
 12 28  1  0
 13 29  1  0
 13 30  1  0
 14 31  1  0
 14 32  1  0
 15 33  1  0
 15 34  1  0
 15 35  1  0
M  CHG  2  12   1  15   1
M  END
$$$$
=
     RDKit          3D

 34 35  0  0  0  0  0  0  0  0999 V2000
   17.8790   16.0510    4.1680 C   0  0  1  0  0  0  0  0  0  0  0  0
   19.2680   16.0240    3.6020 C   0  0  2  0  0  0  0  0  0  0  0  0
   18.6430   14.7310    4.0450 C   0  0  2  0  0  0  0  0  0  0  0  0
   20.4330   16.6630    4.3050 C   0  0  0  0  0  0  0  0  0  0  0  0
   20.8370   17.9850    4.0350 C   0  0  0  0  0  0  0  0  0  0  0  0
   21.9100   18.5680    4.7140 C   0  0  0  0  0  0  0  0  0  0  0  0
   22.5830   17.8420    5.6870 C   0  0  0  0  0  0  0  0  0  0  0  0
   22.1960   16.5470    5.9970 C   0  0  0  0  0  0  0  0  0  0  0  0
   21.1230   15.9670    5.3160 C   0  0  0  0  0  0  0  0  0  0  0  0
   23.6120   18.4000    6.3350 F   0  0  0  0  0  0  0  0  0  0  0  0
   17.3090   16.1290    5.8840 S   0  0  0  0  0  6  0  0  0  0  0  0
   18.2470   15.2940    6.6000 O   0  0  0  0  0  0  0  0  0  0  0  0
   17.2800   17.5670    6.1330 O   0  0  0  0  0  0  0  0  0  0  0  0
   14.9690   15.3760    4.7180 C   0  0  0  0  0  0  0  0  0  0  0  0
   15.6760   15.4620    6.0570 C   0  0  0  0  0  0  0  0  0  0  0  0
   17.9960   13.6840    3.2130 C   0  0  0  0  0  0  0  0  0  0  0  0
   18.8400   12.4640    3.1280 N   0  0  0  0  0  4  0  0  0  0  0  0
   17.0508   16.6758    3.8022 H   0  0  0  0  0  0  0  0  0  0  0  0
   19.7334   16.3666    2.6661 H   0  0  0  0  0  0  0  0  0  0  0  0
   19.0565   13.9197    4.6620 H   0  0  0  0  0  0  0  0  0  0  0  0
   20.2976   18.5696    3.2752 H   0  0  0  0  0  0  0  0  0  0  0  0
   22.2198   19.5969    4.4787 H   0  0  0  0  0  0  0  0  0  0  0  0
   22.7303   15.9803    6.7738 H   0  0  0  0  0  0  0  0  0  0  0  0
   20.8104   14.9447    5.5751 H   0  0  0  0  0  0  0  0  0  0  0  0
   13.8891   15.2446    4.8813 H   0  0  0  0  0  0  0  0  0  0  0  0
   15.1441   16.3021    4.1508 H   0  0  0  0  0  0  0  0  0  0  0  0
   15.3610   14.5189    4.1508 H   0  0  0  0  0  0  0  0  0  0  0  0
   15.0937   16.1104    6.7282 H   0  0  0  0  0  0  0  0  0  0  0  0
   15.7589   14.4462    6.4708 H   0  0  0  0  0  0  0  0  0  0  0  0
   17.0268   13.4188    3.6606 H   0  0  0  0  0  0  0  0  0  0  0  0
   17.8593   14.0831    2.1971 H   0  0  0  0  0  0  0  0  0  0  0  0
   19.0666   12.1364    4.0779 H   0  0  0  0  0  0  0  0  0  0  0  0
   18.3276   11.7265    2.6236 H   0  0  0  0  0  0  0  0  0  0  0  0
   19.7108   12.6834    2.6236 H   0  0  0  0  0  0  0  0  0  0  0  0
  2  1  1  0
  3  2  1  0
  3  1  1  0
  4  2  1  0
  5  4  2  0
  6  5  1  0
  7  6  2  0
  8  7  1  0
  9  4  1  0
  9  8  2  0
 10  7  1  0
 11  1  1  0
 12 11  2  0
 13 11  2  0
 15 14  1  0
 15 11  1  0
 16  3  1  0
 17 16  1  0
  1 18  1  6
  2 19  1  6
  3 20  1  1
  5 21  1  0
  6 22  1  0
  8 23  1  0
  9 24  1  0
 14 25  1  0
 14 26  1  0
 14 27  1  0
 15 28  1  0
 15 29  1  0
 16 30  1  0
 16 31  1  0
 17 32  1  0
 17 33  1  0
 17 34  1  0
M  CHG  1  17   1
M  END
$$$$
=
     RDKit          3D

 37 36  0  0  0  0  0  0  0  0999 V2000
   17.0350   15.3210    4.5640 C   0  0  2  0  0  0  0  0  0  0  0  0
   16.5850   15.9000    5.9070 C   0  0  0  0  0  0  0  0  0  0  0  0
   18.0110   16.2290    3.9500 N   0  0  0  0  0  0  0  0  0  0  0  0
   19.2810   15.8270    3.6440 C   0  0  0  0  0  0  0  0  0  0  0  0
   19.5850   14.6480    3.5290 O   0  0  0  0  0  0  0  0  0  0  0  0
   20.0630   16.9040    3.4680 O   0  0  0  0  0  0  0  0  0  0  0  0
   20.7680   17.5130    4.5850 C   0  0  0  0  0  0  0  0  0  0  0  0
   21.8510   18.3870    3.9370 C   0  0  0  0  0  0  0  0  0  0  0  0
   19.8330   18.4090    5.4040 C   0  0  0  0  0  0  0  0  0  0  0  0
   21.4450   16.4490    5.4550 C   0  0  0  0  0  0  0  0  0  0  0  0
   15.8030   15.0220    3.6420 C   0  0  1  0  0  0  0  0  0  0  0  0
   15.8270   13.6060    3.1670 N   0  0  0  0  0  4  0  0  0  0  0  0
   13.4700   14.1170    4.2810 C   0  0  0  0  0  0  0  0  0  0  0  0
   14.4320   15.2970    4.2780 C   0  0  0  0  0  0  0  0  0  0  0  0
   17.5334   14.3527    4.7187 H   0  0  0  0  0  0  0  0  0  0  0  0
   17.0357   15.3200    6.7258 H   0  0  0  0  0  0  0  0  0  0  0  0
   16.9070   16.9492    5.9803 H   0  0  0  0  0  0  0  0  0  0  0  0
   15.4887   15.8469    5.9803 H   0  0  0  0  0  0  0  0  0  0  0  0
   17.7305   17.1983    3.7435 H   0  0  0  0  0  0  0  0  0  0  0  0
   22.4503   18.8707    4.7224 H   0  0  0  0  0  0  0  0  0  0  0  0
   22.5034   17.7594    3.3121 H   0  0  0  0  0  0  0  0  0  0  0  0
   21.3753   19.1572    3.3121 H   0  0  0  0  0  0  0  0  0  0  0  0
   20.0095   18.2399    6.4765 H   0  0  0  0  0  0  0  0  0  0  0  0
   20.0306   19.4636    5.1617 H   0  0  0  0  0  0  0  0  0  0  0  0
   18.7877   18.1667    5.1617 H   0  0  0  0  0  0  0  0  0  0  0  0
   21.2909   16.6912    6.5169 H   0  0  0  0  0  0  0  0  0  0  0  0
   21.0073   15.4638    5.2364 H   0  0  0  0  0  0  0  0  0  0  0  0
   22.5229   16.4281    5.2364 H   0  0  0  0  0  0  0  0  0  0  0  0
   15.9136   15.7284    2.8061 H   0  0  0  0  0  0  0  0  0  0  0  0
   15.8377   12.9718    3.9785 H   0  0  0  0  0  0  0  0  0  0  0  0
   14.9890   13.4207    2.5975 H   0  0  0  0  0  0  0  0  0  0  0  0
   16.6708   13.4492    2.5975 H   0  0  0  0  0  0  0  0  0  0  0  0
   13.2396   13.8344    5.3188 H   0  0  0  0  0  0  0  0  0  0  0  0
   12.5415   14.3995    3.7632 H   0  0  0  0  0  0  0  0  0  0  0  0
   13.9338   13.2645    3.7632 H   0  0  0  0  0  0  0  0  0  0  0  0
   13.9586   16.1205    3.7232 H   0  0  0  0  0  0  0  0  0  0  0  0
   14.6276   15.5338    5.3342 H   0  0  0  0  0  0  0  0  0  0  0  0
  2  1  1  0
  3  1  1  0
  4  3  1  0
  5  4  2  0
  6  4  1  0
  7  6  1  0
  8  7  1  0
  9  7  1  0
 10  7  1  0
 11  1  1  0
 12 11  1  0
 14 13  1  0
 14 11  1  0
  1 15  1  1
  2 16  1  0
  2 17  1  0
  2 18  1  0
  3 19  1  0
  8 20  1  0
  8 21  1  0
  8 22  1  0
  9 23  1  0
  9 24  1  0
  9 25  1  0
 10 26  1  0
 10 27  1  0
 10 28  1  0
 11 29  1  6
 12 30  1  0
 12 31  1  0
 12 32  1  0
 13 33  1  0
 13 34  1  0
 13 35  1  0
 14 36  1  0
 14 37  1  0
M  CHG  1  12   1
M  END
$$$$
=
     RDKit          3D

 36 37  0  0  0  0  0  0  0  0999 V2000
   15.8190   14.9280    4.2730 C   0  0  0  0  0  0  0  0  0  0  0  0
   15.7430   15.9340    5.2520 C   0  0  0  0  0  0  0  0  0  0  0  0
   16.9010   16.5570    5.7300 C   0  0  0  0  0  0  0  0  0  0  0  0
   18.1490   16.2100    5.2160 C   0  0  0  0  0  0  0  0  0  0  0  0
   18.2370   15.2100    4.2490 C   0  0  0  0  0  0  0  0  0  0  0  0
   17.0840   14.5830    3.7690 C   0  0  0  0  0  0  0  0  0  0  0  0
   19.3680   16.7150    5.7640 N   0  0  0  0  0  0  0  0  0  0  0  0
   20.5670   15.8460    5.8820 C   0  0  0  0  0  0  0  0  0  0  0  0
   21.7550   16.6060    5.2880 C   0  0  0  0  0  0  0  0  0  0  0  0
   21.5240   18.0770    5.5880 C   0  0  0  0  0  0  0  0  0  0  0  0
   19.7960   18.2990    5.2290 S   0  0  0  0  0  6  0  0  0  0  0  0
   19.2000   19.2630    6.1250 O   0  0  0  0  0  0  0  0  0  0  0  0
   19.6310   18.3640    3.7910 O   0  0  0  0  0  0  0  0  0  0  0  0
   14.5880   14.2290    3.7340 C   0  0  1  0  0  0  0  0  0  0  0  0
   14.8290   12.7610    3.3800 C   0  0  0  0  0  0  0  0  0  0  0  0
   12.0990   14.1370    4.2240 C   0  0  0  0  0  0  0  0  0  0  0  0
   13.4760   14.3370    4.7390 N   0  0  0  0  0  4  0  0  0  0  0  0
   14.7614   16.2349    5.6469 H   0  0  0  0  0  0  0  0  0  0  0  0
   16.8260   17.3240    6.5149 H   0  0  0  0  0  0  0  0  0  0  0  0
   19.2220   14.9119    3.8605 H   0  0  0  0  0  0  0  0  0  0  0  0
   17.1678   13.8119    2.9890 H   0  0  0  0  0  0  0  0  0  0  0  0
   20.7606   15.6169    6.9403 H   0  0  0  0  0  0  0  0  0  0  0  0
   20.4096   14.8986    5.3456 H   0  0  0  0  0  0  0  0  0  0  0  0
   22.6928   16.2668    5.7522 H   0  0  0  0  0  0  0  0  0  0  0  0
   21.8365   16.4304    4.2052 H   0  0  0  0  0  0  0  0  0  0  0  0
   21.7399   18.3031    6.6426 H   0  0  0  0  0  0  0  0  0  0  0  0
   22.1750   18.7437    5.0035 H   0  0  0  0  0  0  0  0  0  0  0  0
   14.3155   14.7339    2.7955 H   0  0  0  0  0  0  0  0  0  0  0  0
   14.9257   12.1721    4.3040 H   0  0  0  0  0  0  0  0  0  0  0  0
   13.9811   12.3820    2.7907 H   0  0  0  0  0  0  0  0  0  0  0  0
   15.7536   12.6730    2.7907 H   0  0  0  0  0  0  0  0  0  0  0  0
   11.4025   14.0358    5.0693 H   0  0  0  0  0  0  0  0  0  0  0  0
   11.8077   15.0023    3.6104 H   0  0  0  0  0  0  0  0  0  0  0  0
   12.0659   13.2246    3.6104 H   0  0  0  0  0  0  0  0  0  0  0  0
   13.5209   15.2777    5.1561 H   0  0  0  0  0  0  0  0  0  0  0  0
   13.6334   13.5670    5.4047 H   0  0  0  0  0  0  0  0  0  0  0  0
  2  1  2  0
  3  2  1  0
  4  3  2  0
  5  4  1  0
  6  1  1  0
  6  5  2  0
  7  4  1  0
  8  7  1  0
  9  8  1  0
 10  9  1  0
 11 10  1  0
 11  7  1  0
 12 11  2  0
 13 11  2  0
 14  1  1  0
 15 14  1  0
 17 16  1  0
 17 14  1  0
  2 18  1  0
  3 19  1  0
  5 20  1  0
  6 21  1  0
  8 22  1  0
  8 23  1  0
  9 24  1  0
  9 25  1  0
 10 26  1  0
 10 27  1  0
 14 28  1  6
 15 29  1  0
 15 30  1  0
 15 31  1  0
 16 32  1  0
 16 33  1  0
 16 34  1  0
 17 35  1  0
 17 36  1  0
M  CHG  1  17   1
M  END
$$$$
=
     RDKit          3D

 30 30  0  0  0  0  0  0  0  0999 V2000
   20.3340   17.0150    4.6970 C   0  0  2  0  0  0  0  0  0  0  0  0
   18.8840   16.5690    4.6600 C   0  0  0  0  0  0  0  0  0  0  0  0
   18.4850   15.5740    3.7550 C   0  0  0  0  0  0  0  0  0  0  0  0
   17.1530   15.1500    3.7030 C   0  0  0  0  0  0  0  0  0  0  0  0
   16.1900   15.7100    4.5530 C   0  0  0  0  0  0  0  0  0  0  0  0
   16.5920   16.6900    5.4700 C   0  0  0  0  0  0  0  0  0  0  0  0
   17.9220   17.1180    5.5270 C   0  0  0  0  0  0  0  0  0  0  0  0
   14.7500   15.2300    4.5180 C   0  0  0  0  0  0  0  0  0  0  0  0
   13.8840   16.2320    4.2160 F   0  0  0  0  0  0  0  0  0  0  0  0
   14.3590   14.7210    5.7120 F   0  0  0  0  0  0  0  0  0  0  0  0
   14.5490   14.2570    3.5910 F   0  0  0  0  0  0  0  0  0  0  0  0
   21.2040   15.8660    5.1460 N   0  0  0  0  0  4  0  0  0  0  0  0
   20.9670   15.3170    6.5150 C   0  0  0  0  0  0  0  0  0  0  0  0
   20.5170   18.3100    5.5720 C   0  0  0  0  0  0  0  0  0  0  0  0
   21.9270   18.8270    5.6040 N   0  0  0  0  0  4  0  0  0  0  0  0
   20.6552   17.2986    3.6839 H   0  0  0  0  0  0  0  0  0  0  0  0
   19.2269   15.1228    3.0797 H   0  0  0  0  0  0  0  0  0  0  0  0
   16.8583   14.3685    2.9871 H   0  0  0  0  0  0  0  0  0  0  0  0
   15.8512   17.1288    6.1546 H   0  0  0  0  0  0  0  0  0  0  0  0
   18.2177   17.8886    6.2542 H   0  0  0  0  0  0  0  0  0  0  0  0
   21.0675   15.0953    4.4764 H   0  0  0  0  0  0  0  0  0  0  0  0
   22.1569   16.2554    5.1802 H   0  0  0  0  0  0  0  0  0  0  0  0
   21.2855   16.0548    7.2661 H   0  0  0  0  0  0  0  0  0  0  0  0
   19.8959   15.1019    6.6435 H   0  0  0  0  0  0  0  0  0  0  0  0
   21.5451   14.3900    6.6435 H   0  0  0  0  0  0  0  0  0  0  0  0
   19.8678   19.0987    5.1639 H   0  0  0  0  0  0  0  0  0  0  0  0
   20.2523   18.0385    6.6046 H   0  0  0  0  0  0  0  0  0  0  0  0
   22.2298   18.9380    6.5822 H   0  0  0  0  0  0  0  0  0  0  0  0
   22.5485   18.1591    5.1259 H   0  0  0  0  0  0  0  0  0  0  0  0
   21.9695   19.7383    5.1259 H   0  0  0  0  0  0  0  0  0  0  0  0
  2  1  1  0
  3  2  2  0
  4  3  1  0
  5  4  2  0
  6  5  1  0
  7  2  1  0
  7  6  2  0
  8  5  1  0
  9  8  1  0
 10  8  1  0
 11  8  1  0
 12  1  1  0
 13 12  1  0
 14  1  1  0
 15 14  1  0
  1 16  1  6
  3 17  1  0
  4 18  1  0
  6 19  1  0
  7 20  1  0
 12 21  1  0
 12 22  1  0
 13 23  1  0
 13 24  1  0
 13 25  1  0
 14 26  1  0
 14 27  1  0
 15 28  1  0
 15 29  1  0
 15 30  1  0
M  CHG  2  12   1  15   1
M  END
$$$$
=
     RDKit          3D

 30 31  0  0  0  0  0  0  0  0999 V2000
   19.7670   16.6620    5.6690 C   0  0  1  0  0  0  0  0  0  0  0  0
   20.8990   15.7280    5.2020 C   0  0  0  0  0  0  0  0  0  0  0  0
   22.2020   16.3020    5.3790 O   0  0  0  0  0  0  0  0  0  0  0  0
   22.2600   17.7280    5.2460 C   0  0  0  0  0  0  0  0  0  0  0  0
   21.1810   18.2870    4.3200 C   0  0  0  0  0  0  0  0  0  0  0  0
   19.8200   17.9360    4.8490 N   0  0  0  0  0  4  0  0  0  0  0  0
   18.0380   15.3290    4.2430 C   0  0  2  0  0  0  0  0  0  0  0  0
   16.5180   15.1730    4.2730 C   0  0  0  0  0  0  0  0  0  0  0  0
   16.0000   16.2100    5.2740 C   0  0  0  0  0  0  0  0  0  0  0  0
   17.2200   16.9920    5.7490 C   0  0  0  0  0  0  0  0  0  0  0  0
   18.3810   16.0060    5.5760 C   0  0  2  0  0  0  0  0  0  0  0  0
   18.4250   16.1860    3.1610 O   0  0  0  0  0  0  0  0  0  0  0  0
   19.9227   16.8893    6.7339 H   0  0  0  0  0  0  0  0  0  0  0  0
   20.8450   14.7938    5.7803 H   0  0  0  0  0  0  0  0  0  0  0  0
   20.7588   15.5502    4.1255 H   0  0  0  0  0  0  0  0  0  0  0  0
   22.1345   18.1781    6.2418 H   0  0  0  0  0  0  0  0  0  0  0  0
   23.2351   17.9770    4.8020 H   0  0  0  0  0  0  0  0  0  0  0  0
   21.2794   19.3812    4.2643 H   0  0  0  0  0  0  0  0  0  0  0  0
   21.3030   17.8507    3.3176 H   0  0  0  0  0  0  0  0  0  0  0  0
   19.4965   18.7131    5.4427 H   0  0  0  0  0  0  0  0  0  0  0  0
   19.2208   17.7771    4.0264 H   0  0  0  0  0  0  0  0  0  0  0  0
   18.5526   14.3665    4.1055 H   0  0  0  0  0  0  0  0  0  0  0  0
   16.0957   15.3626    3.2751 H   0  0  0  0  0  0  0  0  0  0  0  0
   16.2261   14.1536    4.5657 H   0  0  0  0  0  0  0  0  0  0  0  0
   15.2813   16.8847    4.7860 H   0  0  0  0  0  0  0  0  0  0  0  0
   15.4806   15.7288    6.1158 H   0  0  0  0  0  0  0  0  0  0  0  0
   17.3738   17.8897    5.1321 H   0  0  0  0  0  0  0  0  0  0  0  0
   17.1179   17.3492    6.7843 H   0  0  0  0  0  0  0  0  0  0  0  0
   18.4730   15.2709    6.3891 H   0  0  0  0  0  0  0  0  0  0  0  0
   18.8040   17.0254    3.5242 H   0  0  0  0  0  0  0  0  0  0  0  0
  2  1  1  0
  3  2  1  0
  4  3  1  0
  5  4  1  0
  6  5  1  0
  6  1  1  0
  8  7  1  0
  9  8  1  0
 10  9  1  0
 11  7  1  0
 11 10  1  0
 11  1  1  0
 12  7  1  0
  1 13  1  1
  2 14  1  0
  2 15  1  0
  4 16  1  0
  4 17  1  0
  5 18  1  0
  5 19  1  0
  6 20  1  0
  6 21  1  0
  7 22  1  6
  8 23  1  0
  8 24  1  0
  9 25  1  0
  9 26  1  0
 10 27  1  0
 10 28  1  0
 11 29  1  1
 12 30  1  0
M  CHG  1   6   1
M  END
$$$$
=
     RDKit          3D

 22 23  0  0  0  0  0  0  0  0999 V2000
   17.0790   14.3720    3.2480 F   0  0  0  0  0  0  0  0  0  0  0  0
   17.4850   15.3900    4.0160 C   0  0  0  0  0  0  0  0  0  0  0  0
   16.6430   15.8950    4.9940 C   0  0  0  0  0  0  0  0  0  0  0  0
   17.0780   16.9550    5.7820 C   0  0  0  0  0  0  0  0  0  0  0  0
   18.3570   17.4890    5.5910 C   0  0  0  0  0  0  0  0  0  0  0  0
   19.2340   16.9740    4.6190 C   0  0  0  0  0  0  0  0  0  0  0  0
   18.7590   15.9210    3.8200 C   0  0  0  0  0  0  0  0  0  0  0  0
   20.6230   17.5330    4.4100 C   0  0  1  0  0  0  0  0  0  0  0  0
   21.3260   18.3210    5.4930 C   0  0  0  0  0  0  0  0  0  0  0  0
   21.8120   16.9490    5.1450 C   0  0  1  0  0  0  0  0  0  0  0  0
   21.5820   15.9070    6.1540 N   0  0  0  0  0  4  0  0  0  0  0  0
   15.6429   15.4627    5.1451 H   0  0  0  0  0  0  0  0  0  0  0  0
   16.4168   17.3735    6.5551 H   0  0  0  0  0  0  0  0  0  0  0  0
   18.6850   18.3324    6.2163 H   0  0  0  0  0  0  0  0  0  0  0  0
   19.4017   15.5093    3.0279 H   0  0  0  0  0  0  0  0  0  0  0  0
   20.3630   17.7172    3.3572 H   0  0  0  0  0  0  0  0  0  0  0  0
   21.9301   19.2010    5.2270 H   0  0  0  0  0  0  0  0  0  0  0  0
   21.0070   18.8182    6.4209 H   0  0  0  0  0  0  0  0  0  0  0  0
   22.7634   16.5036    4.8186 H   0  0  0  0  0  0  0  0  0  0  0  0
   21.6720   16.3149    7.0955 H   0  0  0  0  0  0  0  0  0  0  0  0
   20.6351   15.5189    6.0371 H   0  0  0  0  0  0  0  0  0  0  0  0
   22.2775   15.1564    6.0371 H   0  0  0  0  0  0  0  0  0  0  0  0
  2  1  1  0
  3  2  2  0
  4  3  1  0
  5  4  2  0
  6  5  1  0
  7  2  1  0
  7  6  2  0
  8  6  1  0
  9  8  1  0
 10  8  1  0
 10  9  1  0
 11 10  1  0
  3 12  1  0
  4 13  1  0
  5 14  1  0
  7 15  1  0
  8 16  1  6
  9 17  1  0
  9 18  1  0
 10 19  1  6
 11 20  1  0
 11 21  1  0
 11 22  1  0
M  CHG  1  11   1
M  END
$$$$
=
     RDKit          3D

 34 35  0  0  0  0  0  0  0  0999 V2000
   16.5900   15.8320    6.5330 C   0  0  0  0  0  0  0  0  0  0  0  0
   16.5680   15.8010    5.0020 C   0  0  1  0  0  0  0  0  0  0  0  0
   17.9590   15.5550    4.4250 N   0  0  0  0  0  4  0  0  0  0  0  0
   18.5330   16.7530    3.6760 C   0  0  0  0  0  0  0  0  0  0  0  0
   20.0170   16.5130    3.3890 C   0  0  0  0  0  0  0  0  0  0  0  0
   20.8040   16.3740    4.5760 O   0  0  0  0  0  0  0  0  0  0  0  0
   20.0900   15.8890    5.7200 C   0  0  0  0  0  0  0  0  0  0  0  0
   18.9810   14.8990    5.3560 C   0  0  0  0  0  0  0  0  0  0  0  0
   15.5580   14.8520    4.3810 C   0  0  0  0  0  0  0  0  0  0  0  0
   15.9970   13.9230    3.4220 C   0  0  0  0  0  0  0  0  0  0  0  0
   15.1110   12.9940    2.8630 C   0  0  0  0  0  0  0  0  0  0  0  0
   13.7620   12.9930    3.2140 C   0  0  0  0  0  0  0  0  0  0  0  0
   13.3320   13.8790    4.2000 C   0  0  0  0  0  0  0  0  0  0  0  0
   14.2100   14.8140    4.7640 C   0  0  0  0  0  0  0  0  0  0  0  0
   12.9180   11.9780    2.7620 N   0  0  0  0  0  0  0  0  0  0  0  0
   15.9952   14.9939    6.9253 H   0  0  0  0  0  0  0  0  0  0  0  0
   17.6277   15.7424    6.8867 H   0  0  0  0  0  0  0  0  0  0  0  0
   16.1628   16.7820    6.8867 H   0  0  0  0  0  0  0  0  0  0  0  0
   16.2249   16.8080    4.7224 H   0  0  0  0  0  0  0  0  0  0  0  0
   17.7716   14.8230    3.7250 H   0  0  0  0  0  0  0  0  0  0  0  0
   17.9928   16.8850    2.7269 H   0  0  0  0  0  0  0  0  0  0  0  0
   18.4206   17.6579    4.2913 H   0  0  0  0  0  0  0  0  0  0  0  0
   20.1141   15.5922    2.7950 H   0  0  0  0  0  0  0  0  0  0  0  0
   20.3927   17.3941    2.8482 H   0  0  0  0  0  0  0  0  0  0  0  0
   20.8023   15.3866    6.3909 H   0  0  0  0  0  0  0  0  0  0  0  0
   19.6133   16.7551    6.2024 H   0  0  0  0  0  0  0  0  0  0  0  0
   18.4740   14.5698    6.2750 H   0  0  0  0  0  0  0  0  0  0  0  0
   19.4296   14.0373    4.8400 H   0  0  0  0  0  0  0  0  0  0  0  0
   17.0507   13.9258    3.1064 H   0  0  0  0  0  0  0  0  0  0  0  0
   15.4841   12.2558    2.1379 H   0  0  0  0  0  0  0  0  0  0  0  0
   12.2867   13.8437    4.5409 H   0  0  0  0  0  0  0  0  0  0  0  0
   13.8376   15.5259    5.5154 H   0  0  0  0  0  0  0  0  0  0  0  0
   11.9219   11.9816    3.0241 H   0  0  0  0  0  0  0  0  0  0  0  0
   13.2911   11.2251    2.1663 H   0  0  0  0  0  0  0  0  0  0  0  0
  2  1  1  0
  3  2  1  0
  4  3  1  0
  5  4  1  0
  6  5  1  0
  7  6  1  0
  8  3  1  0
  8  7  1  0
  9  2  1  0
 10  9  2  0
 11 10  1  0
 12 11  2  0
 13 12  1  0
 14 13  2  0
 14  9  1  0
 15 12  1  0
  1 16  1  0
  1 17  1  0
  1 18  1  0
  2 19  1  6
  3 20  1  0
  4 21  1  0
  4 22  1  0
  5 23  1  0
  5 24  1  0
  7 25  1  0
  7 26  1  0
  8 27  1  0
  8 28  1  0
 10 29  1  0
 11 30  1  0
 13 31  1  0
 14 32  1  0
 15 33  1  0
 15 34  1  0
M  CHG  1   3   1
M  END
$$$$
=
     RDKit          3D

 38 38  0  0  0  0  0  0  0  0999 V2000
   28.3580   27.5390   15.4450 N   0  0  0  0  0  0  0  0  0  0  0  0
   27.4610   26.9720   16.3580 C   0  0  0  0  0  0  0  0  0  0  0  0
   27.6870   25.9550   17.0070 O   0  0  0  0  0  0  0  0  0  0  0  0
   28.5420   29.0070   15.3530 C   0  0  0  0  0  0  0  0  0  0  0  0
   29.9740   29.4000   15.7260 C   0  0  0  0  0  0  0  0  0  0  0  0
   28.1470   29.6040   14.0030 C   0  0  0  0  0  0  0  0  0  0  0  0
   29.4250   26.6520   14.9540 C   0  0  0  0  0  0  0  0  0  0  0  0
   28.8600   24.4240   13.8030 C   0  0  0  0  0  0  0  0  0  0  0  0
   28.3890   23.7070   12.6980 C   0  0  0  0  0  0  0  0  0  0  0  0
   28.0540   24.3780   11.5250 C   0  0  0  0  0  0  0  0  0  0  0  0
   28.1840   25.7620   11.4580 C   0  0  0  0  0  0  0  0  0  0  0  0
   28.6350   26.4800   12.5690 C   0  0  0  0  0  0  0  0  0  0  0  0
   28.9590   25.8260   13.7710 C   0  0  0  0  0  0  0  0  0  0  0  0
   30.5390   23.2900   14.8700 C   0  0  0  0  0  0  0  0  0  0  0  0
   29.1680   23.7150   14.9410 O   0  0  0  0  0  0  0  0  0  0  0  0
   26.0480   27.5480   16.3210 C   0  0  0  0  0  0  0  0  0  0  0  0
   25.7380   28.1770   17.6430 N   0  0  0  0  0  4  0  0  0  0  0  0
   27.8432   29.4406   16.0835 H   0  0  0  0  0  0  0  0  0  0  0  0
   30.0733   29.4272   16.8212 H   0  0  0  0  0  0  0  0  0  0  0  0
   30.6765   28.6614   15.3124 H   0  0  0  0  0  0  0  0  0  0  0  0
   30.2011   30.3937   15.3124 H   0  0  0  0  0  0  0  0  0  0  0  0
   27.5466   30.5114   14.1649 H   0  0  0  0  0  0  0  0  0  0  0  0
   29.0540   29.8608   13.4361 H   0  0  0  0  0  0  0  0  0  0  0  0
   27.5560   28.8696   13.4361 H   0  0  0  0  0  0  0  0  0  0  0  0
   30.2855   27.2641   14.6460 H   0  0  0  0  0  0  0  0  0  0  0  0
   29.7046   25.9651   15.7664 H   0  0  0  0  0  0  0  0  0  0  0  0
   28.2834   22.6136   12.7558 H   0  0  0  0  0  0  0  0  0  0  0  0
   27.6875   23.8157   10.6535 H   0  0  0  0  0  0  0  0  0  0  0  0
   27.9311   26.2923   10.5280 H   0  0  0  0  0  0  0  0  0  0  0  0
   28.7381   27.5731   12.5022 H   0  0  0  0  0  0  0  0  0  0  0  0
   30.9377   23.1664   15.8877 H   0  0  0  0  0  0  0  0  0  0  0  0
   30.5984   22.3313   14.3340 H   0  0  0  0  0  0  0  0  0  0  0  0
   31.1303   24.0470   14.3340 H   0  0  0  0  0  0  0  0  0  0  0  0
   25.9808   28.3070   15.5277 H   0  0  0  0  0  0  0  0  0  0  0  0
   25.3263   26.7435   16.1163 H   0  0  0  0  0  0  0  0  0  0  0  0
   26.0461   27.5518   18.4014 H   0  0  0  0  0  0  0  0  0  0  0  0
   26.2316   29.0778   17.7188 H   0  0  0  0  0  0  0  0  0  0  0  0
   24.7229   28.3343   17.7188 H   0  0  0  0  0  0  0  0  0  0  0  0
  2  1  1  0
  3  2  2  0
  4  1  1  0
  5  4  1  0
  6  4  1  0
  7  1  1  0
  9  8  2  0
 10  9  1  0
 11 10  2  0
 12 11  1  0
 13 12  2  0
 13  8  1  0
 13  7  1  0
 15 14  1  0
 15  8  1  0
 16  2  1  0
 17 16  1  0
  4 18  1  0
  5 19  1  0
  5 20  1  0
  5 21  1  0
  6 22  1  0
  6 23  1  0
  6 24  1  0
  7 25  1  0
  7 26  1  0
  9 27  1  0
 10 28  1  0
 11 29  1  0
 12 30  1  0
 14 31  1  0
 14 32  1  0
 14 33  1  0
 16 34  1  0
 16 35  1  0
 17 36  1  0
 17 37  1  0
 17 38  1  0
M  CHG  1  17   1
M  END
$$$$
=
     RDKit          3D

 35 36  0  0  0  0  0  0  0  0999 V2000
   18.3800   15.6000    4.0870 C   0  0  0  0  0  0  0  0  0  0  0  0
   19.2200   15.2180    3.2720 O   0  0  0  0  0  0  0  0  0  0  0  0
   18.7780   16.4150    5.1650 N   0  0  0  0  0  0  0  0  0  0  0  0
   19.1230   15.6280    6.3590 C   0  0  0  0  0  0  0  0  0  0  0  0
   20.4430   14.8350    6.1670 C   0  0  0  0  0  0  0  0  0  0  0  0
   21.2510   15.4060    5.0300 N   0  0  0  0  0  4  0  0  0  0  0  0
   21.2540   16.9060    5.0010 C   0  0  0  0  0  0  0  0  0  0  0  0
   19.8020   17.4320    4.8180 C   0  0  2  0  0  0  0  0  0  0  0  0
   19.5850   18.7200    5.6100 C   0  0  0  0  0  0  0  0  0  0  0  0
   14.8180   12.3320    2.6450 C   0  0  0  0  0  0  0  0  0  0  0  0
   15.2300   13.5960    3.3420 C   0  0  0  0  0  0  0  0  0  0  0  0
   14.2820   14.3640    4.0290 C   0  0  0  0  0  0  0  0  0  0  0  0
   14.6650   15.5140    4.7190 C   0  0  0  0  0  0  0  0  0  0  0  0
   16.0020   15.9080    4.7320 C   0  0  0  0  0  0  0  0  0  0  0  0
   16.9610   15.1510    4.0510 C   0  0  0  0  0  0  0  0  0  0  0  0
   16.5760   13.9880    3.3690 C   0  0  0  0  0  0  0  0  0  0  0  0
   19.2392   16.3107    7.2137 H   0  0  0  0  0  0  0  0  0  0  0  0
   18.3133   14.9049    6.5367 H   0  0  0  0  0  0  0  0  0  0  0  0
   21.0345   14.8901    7.0928 H   0  0  0  0  0  0  0  0  0  0  0  0
   20.1947   13.7894    5.9323 H   0  0  0  0  0  0  0  0  0  0  0  0
   22.2232   15.0786    5.1227 H   0  0  0  0  0  0  0  0  0  0  0  0
   20.8158   15.0841    4.1537 H   0  0  0  0  0  0  0  0  0  0  0  0
   21.6646   17.2888    5.9470 H   0  0  0  0  0  0  0  0  0  0  0  0
   21.8743   17.2519    4.1610 H   0  0  0  0  0  0  0  0  0  0  0  0
   19.6768   17.6537    3.7479 H   0  0  0  0  0  0  0  0  0  0  0  0
   19.6222   18.4989    6.6869 H   0  0  0  0  0  0  0  0  0  0  0  0
   20.3739   19.4435    5.3567 H   0  0  0  0  0  0  0  0  0  0  0  0
   18.6026   19.1451    5.3567 H   0  0  0  0  0  0  0  0  0  0  0  0
   14.5681   11.5654    3.3933 H   0  0  0  0  0  0  0  0  0  0  0  0
   13.9381   12.5305    2.0155 H   0  0  0  0  0  0  0  0  0  0  0  0
   15.6459   11.9738    2.0155 H   0  0  0  0  0  0  0  0  0  0  0  0
   13.2256   14.0576    4.0245 H   0  0  0  0  0  0  0  0  0  0  0  0
   13.9112   16.1107    5.2535 H   0  0  0  0  0  0  0  0  0  0  0  0
   16.3029   16.8143    5.2779 H   0  0  0  0  0  0  0  0  0  0  0  0
   17.3336   13.3802    2.8526 H   0  0  0  0  0  0  0  0  0  0  0  0
  2  1  2  0
  3  1  1  0
  4  3  1  0
  5  4  1  0
  6  5  1  0
  7  6  1  0
  8  7  1  0
  8  3  1  0
  9  8  1  0
 11 10  1  0
 12 11  2  0
 13 12  1  0
 14 13  2  0
 15 14  1  0
 15  1  1  0
 16 11  1  0
 16 15  2  0
  4 17  1  0
  4 18  1  0
  5 19  1  0
  5 20  1  0
  6 21  1  0
  6 22  1  0
  7 23  1  0
  7 24  1  0
  8 25  1  6
  9 26  1  0
  9 27  1  0
  9 28  1  0
 10 29  1  0
 10 30  1  0
 10 31  1  0
 12 32  1  0
 13 33  1  0
 14 34  1  0
 16 35  1  0
M  CHG  1   6   1
M  END
$$$$
=
     RDKit          3D

 69 73  0  0  0  0  0  0  0  0999 V2000
   11.6480   13.9420    4.1520 C   0  0  0  0  0  0  0  0  0  0  0  0
   12.9660   14.2440    4.5280 C   0  0  0  0  0  0  0  0  0  0  0  0
   14.0670   13.6350    3.9090 C   0  0  0  0  0  0  0  0  0  0  0  0
   13.8340   12.7100    2.8880 C   0  0  0  0  0  0  0  0  0  0  0  0
   12.5250   12.4000    2.5060 C   0  0  0  0  0  0  0  0  0  0  0  0
   11.4270   13.0000    3.1390 C   0  0  0  0  0  0  0  0  0  0  0  0
   10.7320   14.6640    4.8670 O   0  0  0  0  0  0  0  0  0  0  0  0
    8.5610   13.9500    5.5330 C   0  0  0  0  0  0  0  0  0  0  0  0
   10.0250   14.0250    5.9290 C   0  0  0  0  0  0  0  0  0  0  0  0
   15.4610   14.0370    4.2900 C   0  0  0  0  0  0  0  0  0  0  0  0
   15.6040   15.5250    4.2370 N   0  0  0  0  0  4  0  0  0  0  0  0
   16.2460   16.1750    5.4360 C   0  0  1  0  0  0  0  0  0  0  0  0
   15.9320   15.3060    6.6570 C   0  0  0  0  0  0  0  0  0  0  0  0
   17.7730   16.4180    5.1750 C   0  0  2  0  0  0  0  0  0  0  0  0
   18.6310   15.3910    5.9760 C   0  0  0  0  0  0  0  0  0  0  0  0
   20.1330   15.5830    5.7040 C   0  0  2  0  0  0  0  0  0  0  0  0
   20.5410   17.0070    6.1100 C   0  0  0  0  0  0  0  0  0  0  0  0
   19.7420   18.0350    5.2950 C   0  0  2  0  0  0  0  0  0  0  0  0
   18.2380   17.8480    5.5700 C   0  0  0  0  0  0  0  0  0  0  0  0
   20.0190   17.8210    3.8000 C   0  0  0  0  0  0  0  0  0  0  0  0
   19.6060   16.3990    3.3890 C   0  0  2  0  0  0  0  0  0  0  0  0
   18.1050   16.2130    3.6670 C   0  0  0  0  0  0  0  0  0  0  0  0
   20.4070   15.3780    4.2080 C   0  0  0  0  0  0  0  0  0  0  0  0
   10.1550   12.7490    2.7110 O   0  0  0  0  0  0  0  0  0  0  0  0
   10.0020   11.5630    1.9240 C   0  0  0  0  0  0  0  0  0  0  0  0
    9.0640   11.8800    0.7860 C   0  0  0  0  0  0  0  0  0  0  0  0
    9.1060   11.1420   -0.4050 C   0  0  0  0  0  0  0  0  0  0  0  0
    8.2290   11.4360   -1.4510 C   0  0  0  0  0  0  0  0  0  0  0  0
    7.3030   12.4680   -1.3170 C   0  0  0  0  0  0  0  0  0  0  0  0
    7.2490   13.2070   -0.1360 C   0  0  0  0  0  0  0  0  0  0  0  0
    8.1250   12.9140    0.9110 C   0  0  0  0  0  0  0  0  0  0  0  0
   13.1398   14.9775    5.3291 H   0  0  0  0  0  0  0  0  0  0  0  0
   14.6823   12.2244    2.3835 H   0  0  0  0  0  0  0  0  0  0  0  0
   12.3541   11.6747    1.6969 H   0  0  0  0  0  0  0  0  0  0  0  0
    7.9374   13.9181    6.4386 H   0  0  0  0  0  0  0  0  0  0  0  0
    8.2966   14.8358    4.9368 H   0  0  0  0  0  0  0  0  0  0  0  0
    8.3885   13.0418    4.9368 H   0  0  0  0  0  0  0  0  0  0  0  0
   10.4224   13.0115    6.0865 H   0  0  0  0  0  0  0  0  0  0  0  0
   10.1415   14.5924    6.8641 H   0  0  0  0  0  0  0  0  0  0  0  0
   15.6731   13.6881    5.3114 H   0  0  0  0  0  0  0  0  0  0  0  0
   16.1706   13.5835    3.5824 H   0  0  0  0  0  0  0  0  0  0  0  0
   16.1741   15.7567    3.4110 H   0  0  0  0  0  0  0  0  0  0  0  0
   14.6426   15.8934    4.2055 H   0  0  0  0  0  0  0  0  0  0  0  0
   15.8385   17.1779    5.6315 H   0  0  0  0  0  0  0  0  0  0  0  0
   16.1378   15.8757    7.5752 H   0  0  0  0  0  0  0  0  0  0  0  0
   14.8716   15.0142    6.6365 H   0  0  0  0  0  0  0  0  0  0  0  0
   16.5610   14.4038    6.6365 H   0  0  0  0  0  0  0  0  0  0  0  0
   18.4415   15.5272    7.0510 H   0  0  0  0  0  0  0  0  0  0  0  0
   18.3474   14.3776    5.6556 H   0  0  0  0  0  0  0  0  0  0  0  0
   20.7139   14.8529    6.2866 H   0  0  0  0  0  0  0  0  0  0  0  0
   20.3368   17.1531    7.1810 H   0  0  0  0  0  0  0  0  0  0  0  0
   21.6143   17.1452    5.9126 H   0  0  0  0  0  0  0  0  0  0  0  0
   20.0438   19.0524    5.5844 H   0  0  0  0  0  0  0  0  0  0  0  0
   18.0459   18.0056    6.6416 H   0  0  0  0  0  0  0  0  0  0  0  0
   17.6780   18.5778    4.9668 H   0  0  0  0  0  0  0  0  0  0  0  0
   19.4423   18.5518    3.2141 H   0  0  0  0  0  0  0  0  0  0  0  0
   21.0938   17.9552    3.6083 H   0  0  0  0  0  0  0  0  0  0  0  0
   19.8081   16.2474    2.3184 H   0  0  0  0  0  0  0  0  0  0  0  0
   17.5383   16.9456    3.0736 H   0  0  0  0  0  0  0  0  0  0  0  0
   17.8278   15.1853    3.3896 H   0  0  0  0  0  0  0  0  0  0  0  0
   21.4808   15.5135    4.0113 H   0  0  0  0  0  0  0  0  0  0  0  0
   20.1031   14.3612    3.9187 H   0  0  0  0  0  0  0  0  0  0  0  0
   10.9787   11.2492    1.5270 H   0  0  0  0  0  0  0  0  0  0  0  0
    9.5971   10.7451    2.5380 H   0  0  0  0  0  0  0  0  0  0  0  0
    9.8348   10.3257   -0.5164 H   0  0  0  0  0  0  0  0  0  0  0  0
    8.2694   10.8518   -2.3822 H   0  0  0  0  0  0  0  0  0  0  0  0
    6.6144   12.6999   -2.1429 H   0  0  0  0  0  0  0  0  0  0  0  0
    6.5165   14.0206   -0.0291 H   0  0  0  0  0  0  0  0  0  0  0  0
    8.0782   13.4989    1.8414 H   0  0  0  0  0  0  0  0  0  0  0  0
  2  1  2  0
  3  2  1  0
  4  3  2  0
  5  4  1  0
  6  5  2  0
  6  1  1  0
  7  1  1  0
  9  7  1  0
  9  8  1  0
 10  3  1  0
 11 10  1  0
 12 11  1  0
 13 12  1  0
 14 12  1  0
 14 15  1  1
 16 15  1  0
 17 16  1  0
 18 17  1  0
 19 18  1  0
 19 14  1  0
 20 18  1  0
 21 20  1  0
 22 21  1  0
 22 14  1  0
 23 16  1  0
 23 21  1  0
 24  6  1  0
 25 24  1  0
 26 25  1  0
 27 26  2  0
 28 27  1  0
 29 28  2  0
 30 29  1  0
 31 30  2  0
 31 26  1  0
  2 32  1  0
  4 33  1  0
  5 34  1  0
  8 35  1  0
  8 36  1  0
  8 37  1  0
  9 38  1  0
  9 39  1  0
 10 40  1  0
 10 41  1  0
 11 42  1  0
 11 43  1  0
 12 44  1  1
 13 45  1  0
 13 46  1  0
 13 47  1  0
 15 48  1  0
 15 49  1  0
 16 50  1  1
 17 51  1  0
 17 52  1  0
 18 53  1  1
 19 54  1  0
 19 55  1  0
 20 56  1  0
 20 57  1  0
 21 58  1  6
 22 59  1  0
 22 60  1  0
 23 61  1  0
 23 62  1  0
 25 63  1  0
 25 64  1  0
 27 65  1  0
 28 66  1  0
 29 67  1  0
 30 68  1  0
 31 69  1  0
M  CHG  1  11   1
M  END
$$$$
=
     RDKit          3D

 28 28  0  0  0  0  0  0  0  0999 V2000
   19.1290   15.8070    4.6310 N   0  0  0  0  0  0  0  0  0  0  0  0
   18.1770   14.8820    4.0970 C   0  0  0  0  0  0  0  0  0  0  0  0
   18.5970   13.7650    3.4580 N   0  0  0  0  0  0  0  0  0  0  0  0
   17.6490   12.9500    2.9450 C   0  0  0  0  0  0  0  0  0  0  0  0
   16.2870   13.1850    3.0360 C   0  0  0  0  0  0  0  0  0  0  0  0
   15.8590   14.3210    3.7120 C   0  0  0  0  0  0  0  0  0  0  0  0
   16.8010   15.1660    4.2960 C   0  0  0  0  0  0  0  0  0  0  0  0
   16.3860   16.3680    4.9170 N   0  0  0  0  0  0  0  0  0  0  0  0
   19.3170   16.8960    3.6520 C   0  0  0  0  0  0  0  0  0  0  0  0
   19.6840   18.1890    4.3690 C   0  0  0  0  0  0  0  0  0  0  0  0
   20.3910   15.1350    5.0250 C   0  0  0  0  0  0  0  0  0  0  0  0
   20.4560   14.8580    6.5360 C   0  0  0  0  0  0  0  0  0  0  0  0
   21.5010   15.6180    7.1500 O   0  0  0  0  0  0  0  0  0  0  0  0
   17.9804   12.0412    2.4213 H   0  0  0  0  0  0  0  0  0  0  0  0
   15.5631   12.4904    2.5849 H   0  0  0  0  0  0  0  0  0  0  0  0
   14.7859   14.5514    3.7856 H   0  0  0  0  0  0  0  0  0  0  0  0
   17.0827   16.9920    5.3484 H   0  0  0  0  0  0  0  0  0  0  0  0
   15.3872   16.6189    4.9376 H   0  0  0  0  0  0  0  0  0  0  0  0
   20.1247   16.6241    2.9565 H   0  0  0  0  0  0  0  0  0  0  0  0
   18.3791   17.0464    3.0973 H   0  0  0  0  0  0  0  0  0  0  0  0
   19.6391   18.0306    5.4566 H   0  0  0  0  0  0  0  0  0  0  0  0
   20.7030   18.4898    4.0841 H   0  0  0  0  0  0  0  0  0  0  0  0
   18.9750   18.9802    4.0841 H   0  0  0  0  0  0  0  0  0  0  0  0
   20.4660   14.1789    4.4863 H   0  0  0  0  0  0  0  0  0  0  0  0
   21.2243   15.8060    4.7692 H   0  0  0  0  0  0  0  0  0  0  0  0
   19.4943   15.1324    6.9941 H   0  0  0  0  0  0  0  0  0  0  0  0
   20.6631   13.7885    6.6886 H   0  0  0  0  0  0  0  0  0  0  0  0
   21.4181   15.5577    8.1347 H   0  0  0  0  0  0  0  0  0  0  0  0
  2  1  1  0
  3  2  2  0
  4  3  1  0
  5  4  2  0
  6  5  1  0
  7  6  2  0
  7  2  1  0
  8  7  1  0
  9  1  1  0
 10  9  1  0
 11  1  1  0
 12 11  1  0
 13 12  1  0
  4 14  1  0
  5 15  1  0
  6 16  1  0
  8 17  1  0
  8 18  1  0
  9 19  1  0
  9 20  1  0
 10 21  1  0
 10 22  1  0
 10 23  1  0
 11 24  1  0
 11 25  1  0
 12 26  1  0
 12 27  1  0
 13 28  1  0
M  END
$$$$
=
     RDKit          3D

 37 39  0  0  0  0  0  0  0  0999 V2000
   16.0030   15.2760    4.6710 C   0  0  0  0  0  0  0  0  0  0  0  0
   15.8070   16.5570    5.1250 N   0  0  0  0  0  0  0  0  0  0  0  0
   16.9460   17.0960    5.6040 N   0  0  0  0  0  0  0  0  0  0  0  0
   17.8310   16.1300    5.3500 C   0  0  0  0  0  0  0  0  0  0  0  0
   17.2820   14.9730    4.8430 N   0  0  0  0  0  0  0  0  0  0  0  0
   12.6320   13.7550    3.9980 C   0  0  0  0  0  0  0  0  0  0  0  0
   13.6410   14.5800    4.5120 C   0  0  0  0  0  0  0  0  0  0  0  0
   14.9710   14.4020    4.1090 C   0  0  0  0  0  0  0  0  0  0  0  0
   15.2550   13.3790    3.1870 C   0  0  0  0  0  0  0  0  0  0  0  0
   14.2380   12.5520    2.6840 C   0  0  0  0  0  0  0  0  0  0  0  0
   12.9190   12.7360    3.0930 C   0  0  0  0  0  0  0  0  0  0  0  0
   10.4830   14.4280    3.5830 O   0  0  0  0  0  1  0  0  0  0  0  0
   11.2720   13.9960    4.4380 N   0  0  0  0  0  4  0  0  0  0  0  0
   10.9750   13.6710    5.5940 O   0  0  0  0  0  0  0  0  0  0  0  0
   11.9390   11.9100    2.6340 O   0  0  0  0  0  0  0  0  0  0  0  0
   19.2930   16.1930    5.6970 C   0  0  2  0  0  0  0  0  0  0  0  0
   19.9740   16.9830    4.6010 C   0  0  0  0  0  0  0  0  0  0  0  0
   19.5340   16.9460    3.2630 C   0  0  0  0  0  0  0  0  0  0  0  0
   20.2100   17.6600    2.2700 C   0  0  0  0  0  0  0  0  0  0  0  0
   21.3310   18.4170    2.5960 C   0  0  0  0  0  0  0  0  0  0  0  0
   21.7780   18.4690    3.9130 C   0  0  0  0  0  0  0  0  0  0  0  0
   21.1070   17.7580    4.9100 C   0  0  0  0  0  0  0  0  0  0  0  0
   19.8760   14.8260    5.8180 N   0  0  0  0  0  4  0  0  0  0  0  0
   14.9008   17.0461    5.1023 H   0  0  0  0  0  0  0  0  0  0  0  0
   13.3882   15.3701    5.2344 H   0  0  0  0  0  0  0  0  0  0  0  0
   16.2919   13.2240    2.8541 H   0  0  0  0  0  0  0  0  0  0  0  0
   14.4833   11.7565    1.9649 H   0  0  0  0  0  0  0  0  0  0  0  0
   11.0025   12.0429    2.9262 H   0  0  0  0  0  0  0  0  0  0  0  0
   19.4392   16.6802    6.6723 H   0  0  0  0  0  0  0  0  0  0  0  0
   18.6492   16.3489    2.9973 H   0  0  0  0  0  0  0  0  0  0  0  0
   19.8554   17.6235    1.2293 H   0  0  0  0  0  0  0  0  0  0  0  0
   21.8644   18.9748    1.8122 H   0  0  0  0  0  0  0  0  0  0  0  0
   22.6619   19.0716    4.1691 H   0  0  0  0  0  0  0  0  0  0  0  0
   21.4680   17.8043    5.9480 H   0  0  0  0  0  0  0  0  0  0  0  0
   19.9793   14.5837    6.8138 H   0  0  0  0  0  0  0  0  0  0  0  0
   19.2521   14.1451    5.3619 H   0  0  0  0  0  0  0  0  0  0  0  0
   20.7993   14.8049    5.3619 H   0  0  0  0  0  0  0  0  0  0  0  0
  2  1  1  0
  3  2  1  0
  4  3  2  0
  5  1  2  0
  5  4  1  0
  7  6  2  0
  8  7  1  0
  8  1  1  0
  9  8  2  0
 10  9  1  0
 11 10  2  0
 11  6  1  0
 13 12  1  0
 13  6  1  0
 14 13  2  0
 15 11  1  0
 16  4  1  0
 17 16  1  0
 18 17  2  0
 19 18  1  0
 20 19  2  0
 21 20  1  0
 22 21  2  0
 22 17  1  0
 23 16  1  0
  2 24  1  0
  7 25  1  0
  9 26  1  0
 10 27  1  0
 15 28  1  0
 16 29  1  1
 18 30  1  0
 19 31  1  0
 20 32  1  0
 21 33  1  0
 22 34  1  0
 23 35  1  0
 23 36  1  0
 23 37  1  0
M  CHG  3  12  -1  13   1  23   1
M  END
$$$$
=
     RDKit          3D

 32 33  0  0  0  0  0  0  0  0999 V2000
   16.2730   15.3350    4.3420 C   0  0  0  0  0  0  0  0  0  0  0  0
   17.4820   15.3600    3.6350 C   0  0  0  0  0  0  0  0  0  0  0  0
   18.5310   16.2020    4.0220 C   0  0  0  0  0  0  0  0  0  0  0  0
   18.3990   17.0530    5.1290 C   0  0  0  0  0  0  0  0  0  0  0  0
   17.1920   17.0290    5.8430 C   0  0  0  0  0  0  0  0  0  0  0  0
   16.1460   16.1840    5.4510 C   0  0  0  0  0  0  0  0  0  0  0  0
   12.7920   13.8860    3.9080 C   0  0  0  0  0  0  0  0  0  0  0  0
   13.0620   12.7370    3.1630 C   0  0  0  0  0  0  0  0  0  0  0  0
   14.3740   12.4360    2.8030 C   0  0  0  0  0  0  0  0  0  0  0  0
   15.4180   13.2820    3.1870 C   0  0  0  0  0  0  0  0  0  0  0  0
   15.1720   14.4450    3.9370 C   0  0  0  0  0  0  0  0  0  0  0  0
   13.8420   14.7330    4.2900 C   0  0  0  0  0  0  0  0  0  0  0  0
   10.3520   14.4650    4.5680 N   0  0  0  0  0  0  0  0  0  0  0  0
   11.4480   14.2060    4.2860 C   0  0  0  0  0  0  0  0  0  0  0  0
   19.5640   17.9190    5.5480 C   0  0  1  0  0  0  0  0  0  0  0  0
   20.5420   18.2590    4.4270 C   0  0  0  0  0  0  0  0  0  0  0  0
   19.0630   19.1890    6.1370 N   0  0  0  0  0  4  0  0  0  0  0  0
   17.6093   14.7060    2.7597 H   0  0  0  0  0  0  0  0  0  0  0  0
   19.4709   16.1962    3.4506 H   0  0  0  0  0  0  0  0  0  0  0  0
   17.0655   17.6807    6.7201 H   0  0  0  0  0  0  0  0  0  0  0  0
   15.2070   16.1863    6.0239 H   0  0  0  0  0  0  0  0  0  0  0  0
   12.2408   12.0705    2.8607 H   0  0  0  0  0  0  0  0  0  0  0  0
   14.5884   11.5310    2.2156 H   0  0  0  0  0  0  0  0  0  0  0  0
   16.4497   13.0335    2.8974 H   0  0  0  0  0  0  0  0  0  0  0  0
   13.6215   15.6377    4.8755 H   0  0  0  0  0  0  0  0  0  0  0  0
   20.1210   17.3184    6.2822 H   0  0  0  0  0  0  0  0  0  0  0  0
   21.4966   18.5909    4.8613 H   0  0  0  0  0  0  0  0  0  0  0  0
   20.7121   17.3673    3.8058 H   0  0  0  0  0  0  0  0  0  0  0  0
   20.1223   19.0640    3.8058 H   0  0  0  0  0  0  0  0  0  0  0  0
   19.0885   19.1244    7.1647 H   0  0  0  0  0  0  0  0  0  0  0  0
   19.6591   19.9698    5.8272 H   0  0  0  0  0  0  0  0  0  0  0  0
   18.0944   19.3526    5.8272 H   0  0  0  0  0  0  0  0  0  0  0  0
  2  1  2  0
  3  2  1  0
  4  3  2  0
  5  4  1  0
  6  1  1  0
  6  5  2  0
  8  7  2  0
  9  8  1  0
 10  9  2  0
 11 10  1  0
 11  1  1  0
 12 11  2  0
 12  7  1  0
 14 13  3  0
 14  7  1  0
 15  4  1  0
 16 15  1  0
 17 15  1  0
  2 18  1  0
  3 19  1  0
  5 20  1  0
  6 21  1  0
  8 22  1  0
  9 23  1  0
 10 24  1  0
 12 25  1  0
 15 26  1  1
 16 27  1  0
 16 28  1  0
 16 29  1  0
 17 30  1  0
 17 31  1  0
 17 32  1  0
M  CHG  1  17   1
M  END
$$$$
=
     RDKit          3D

 21 21  0  0  0  0  0  0  0  0999 V2000
   21.6670   17.4550    4.9860 C   0  0  0  0  0  0  0  0  0  0  0  0
   21.2990   18.0500    3.7920 C   0  0  0  0  0  0  0  0  0  0  0  0
   20.2760   17.3000    3.2860 N   0  0  0  0  0  0  0  0  0  0  0  0
   19.9270   16.2860    4.0900 N   0  0  0  0  0  0  0  0  0  0  0  0
   20.7850   16.3440    5.1100 C   0  0  0  0  0  0  0  0  0  0  0  0
   20.7180   15.3210    6.1860 C   0  0  0  0  0  0  0  0  0  0  0  0
   19.5710   17.4980    2.0400 C   0  0  0  0  0  0  0  0  0  0  0  0
   22.7250   17.8800    5.9240 C   0  0  0  0  0  0  0  0  0  0  0  0
   23.6790   18.7780    5.2390 N   0  0  0  0  0  4  0  0  0  0  0  0
   21.7427   18.9493    3.3399 H   0  0  0  0  0  0  0  0  0  0  0  0
   20.7505   15.8179    7.1669 H   0  0  0  0  0  0  0  0  0  0  0  0
   19.7807   14.7527    6.0938 H   0  0  0  0  0  0  0  0  0  0  0  0
   21.5732   14.6353    6.0938 H   0  0  0  0  0  0  0  0  0  0  0  0
   18.5313   17.7900    2.2494 H   0  0  0  0  0  0  0  0  0  0  0  0
   20.0654   18.2920    1.4611 H   0  0  0  0  0  0  0  0  0  0  0  0
   19.5797   16.5627    1.4611 H   0  0  0  0  0  0  0  0  0  0  0  0
   22.2680   18.4124    6.7712 H   0  0  0  0  0  0  0  0  0  0  0  0
   23.2630   16.9919    6.2870 H   0  0  0  0  0  0  0  0  0  0  0  0
   24.2282   19.2949    5.9405 H   0  0  0  0  0  0  0  0  0  0  0  0
   24.3132   18.2200    4.6496 H   0  0  0  0  0  0  0  0  0  0  0  0
   23.1603   19.4447    4.6496 H   0  0  0  0  0  0  0  0  0  0  0  0
  2  1  2  0
  3  2  1  0
  4  3  1  0
  5  4  2  0
  5  1  1  0
  6  5  1  0
  7  3  1  0
  8  1  1  0
  9  8  1  0
  2 10  1  0
  6 11  1  0
  6 12  1  0
  6 13  1  0
  7 14  1  0
  7 15  1  0
  7 16  1  0
  8 17  1  0
  8 18  1  0
  9 19  1  0
  9 20  1  0
  9 21  1  0
M  CHG  1   9   1
M  END
$$$$
=
     RDKit          3D

 33 33  0  0  0  0  0  0  0  0999 V2000
   19.1120   17.5890    4.7580 C   0  0  0  0  0  0  0  0  0  0  0  0
   18.2050   17.8050    5.8040 C   0  0  0  0  0  0  0  0  0  0  0  0
   17.0200   17.0690    5.8770 C   0  0  0  0  0  0  0  0  0  0  0  0
   16.7230   16.0950    4.9130 C   0  0  0  0  0  0  0  0  0  0  0  0
   17.6320   15.8820    3.8670 C   0  0  0  0  0  0  0  0  0  0  0  0
   18.8170   16.6180    3.7920 C   0  0  0  0  0  0  0  0  0  0  0  0
   15.4300   15.3140    4.9810 C   0  0  0  0  0  0  0  0  0  0  0  0
   14.3740   15.9900    4.4510 F   0  0  0  0  0  0  0  0  0  0  0  0
   15.4890   14.1270    4.3160 F   0  0  0  0  0  0  0  0  0  0  0  0
   15.0830   15.0140    6.2610 F   0  0  0  0  0  0  0  0  0  0  0  0
   20.3850   18.3950    4.6700 C   0  0  0  0  0  0  0  0  0  0  0  0
   21.6570   17.5360    4.8130 C   0  0  1  0  0  0  0  0  0  0  0  0
   22.9310   18.3820    4.8590 C   0  0  0  0  0  0  0  0  0  0  0  0
   21.6160   16.7450    6.1070 N   0  0  0  0  0  4  0  0  0  0  0  0
   20.2270   14.7640    6.6700 C   0  0  0  0  0  0  0  0  0  0  0  0
   21.5090   15.2540    6.0300 C   0  0  0  0  0  0  0  0  0  0  0  0
   18.4277   18.5594    6.5730 H   0  0  0  0  0  0  0  0  0  0  0  0
   16.3129   17.2553    6.6988 H   0  0  0  0  0  0  0  0  0  0  0  0
   17.4099   15.1278    3.0977 H   0  0  0  0  0  0  0  0  0  0  0  0
   19.5232   16.4340    2.9690 H   0  0  0  0  0  0  0  0  0  0  0  0
   20.4122   18.9006    3.6935 H   0  0  0  0  0  0  0  0  0  0  0  0
   20.3777   19.1110    5.5051 H   0  0  0  0  0  0  0  0  0  0  0  0
   21.6788   16.8789    3.9311 H   0  0  0  0  0  0  0  0  0  0  0  0
   23.2103   18.5675    5.9066 H   0  0  0  0  0  0  0  0  0  0  0  0
   23.7461   17.8452    4.3517 H   0  0  0  0  0  0  0  0  0  0  0  0
   22.7525   19.3416    4.3517 H   0  0  0  0  0  0  0  0  0  0  0  0
   22.4807   16.9615    6.6231 H   0  0  0  0  0  0  0  0  0  0  0  0
   20.7354   17.0381    6.5537 H   0  0  0  0  0  0  0  0  0  0  0  0
   20.3260   14.8018    7.7649 H   0  0  0  0  0  0  0  0  0  0  0  0
   19.3912   15.4061    6.3550 H   0  0  0  0  0  0  0  0  0  0  0  0
   20.0325   13.7282    6.3550 H   0  0  0  0  0  0  0  0  0  0  0  0
   22.3660   14.8051    6.5536 H   0  0  0  0  0  0  0  0  0  0  0  0
   21.5046   14.9590    4.9703 H   0  0  0  0  0  0  0  0  0  0  0  0
  2  1  2  0
  3  2  1  0
  4  3  2  0
  5  4  1  0
  6  5  2  0
  6  1  1  0
  7  4  1  0
  8  7  1  0
  9  7  1  0
 10  7  1  0
 11  1  1  0
 12 11  1  0
 13 12  1  0
 14 12  1  0
 16 15  1  0
 16 14  1  0
  2 17  1  0
  3 18  1  0
  5 19  1  0
  6 20  1  0
 11 21  1  0
 11 22  1  0
 12 23  1  6
 13 24  1  0
 13 25  1  0
 13 26  1  0
 14 27  1  0
 14 28  1  0
 15 29  1  0
 15 30  1  0
 15 31  1  0
 16 32  1  0
 16 33  1  0
M  CHG  1  14   1
M  END
$$$$
=
     RDKit          3D

 50 51  0  0  0  0  0  0  0  0999 V2000
   19.1680   15.6960    4.9820 C   0  0  1  0  0  0  0  0  0  0  0  0
   18.9570   14.9720    6.3220 C   0  0  0  0  0  0  0  0  0  0  0  0
   17.8820   15.6330    7.1820 C   0  0  0  0  0  0  0  0  0  0  0  0
   16.5730   15.8200    6.4250 C   0  0  0  0  0  0  0  0  0  0  0  0
   16.7850   16.5210    5.0840 C   0  0  0  0  0  0  0  0  0  0  0  0
   17.8150   15.8110    4.1780 C   0  0  2  0  0  0  0  0  0  0  0  0
   21.1940   17.1110    5.2860 C   0  0  0  0  0  0  0  0  0  0  0  0
   21.9480   16.1690    5.0500 O   0  0  0  0  0  0  0  0  0  0  0  0
   19.8250   17.0030    5.2100 N   0  0  0  0  0  0  0  0  0  0  0  0
   21.7630   18.4810    5.6760 C   0  0  0  0  0  0  0  0  0  0  0  0
   23.2490   18.4090    5.8350 N   0  0  0  0  0  4  0  0  0  0  0  0
   17.2500   14.4370    3.6970 N   0  0  2  0  0  4  0  0  0  0  0  0
   18.2950   13.5250    3.0660 C   0  0  0  0  0  0  0  0  0  0  0  0
   18.0250   12.0550    3.3470 C   0  0  0  0  0  0  0  0  0  0  0  0
   15.9950   14.5880    2.8090 C   0  0  0  0  0  0  0  0  0  0  0  0
   14.7040   14.0480    3.3700 C   0  0  0  0  0  0  0  0  0  0  0  0
   14.3270   12.7140    3.1390 C   0  0  0  0  0  0  0  0  0  0  0  0
   13.1320   12.2070    3.6560 C   0  0  0  0  0  0  0  0  0  0  0  0
   12.2940   13.0260    4.4060 C   0  0  0  0  0  0  0  0  0  0  0  0
   12.6410   14.3550    4.6270 C   0  0  0  0  0  0  0  0  0  0  0  0
   13.8330   14.8650    4.1090 C   0  0  0  0  0  0  0  0  0  0  0  0
   19.8435   15.1015    4.3493 H   0  0  0  0  0  0  0  0  0  0  0  0
   18.6564   13.9337    6.1182 H   0  0  0  0  0  0  0  0  0  0  0  0
   19.9046   15.0174    6.8788 H   0  0  0  0  0  0  0  0  0  0  0  0
   17.6947   15.0009    8.0626 H   0  0  0  0  0  0  0  0  0  0  0  0
   18.2482   16.6283    7.4739 H   0  0  0  0  0  0  0  0  0  0  0  0
   16.1234   14.8327    6.2429 H   0  0  0  0  0  0  0  0  0  0  0  0
   15.9119   16.4501    7.0381 H   0  0  0  0  0  0  0  0  0  0  0  0
   15.8218   16.5590    4.5541 H   0  0  0  0  0  0  0  0  0  0  0  0
   17.1796   17.5247    5.3005 H   0  0  0  0  0  0  0  0  0  0  0  0
   18.0143   16.3848    3.2610 H   0  0  0  0  0  0  0  0  0  0  0  0
   19.2454   17.8481    5.3138 H   0  0  0  0  0  0  0  0  0  0  0  0
   21.5186   19.2108    4.8901 H   0  0  0  0  0  0  0  0  0  0  0  0
   21.3187   18.7895    6.6338 H   0  0  0  0  0  0  0  0  0  0  0  0
   23.4869   18.3975    6.8371 H   0  0  0  0  0  0  0  0  0  0  0  0
   23.6008   17.5500    5.3887 H   0  0  0  0  0  0  0  0  0  0  0  0
   23.6822   19.2300    5.3887 H   0  0  0  0  0  0  0  0  0  0  0  0
   16.9524   13.9573    4.5585 H   0  0  0  0  0  0  0  0  0  0  0  0
   18.2914   13.6833    1.9775 H   0  0  0  0  0  0  0  0  0  0  0  0
   19.2710   13.7775    3.5060 H   0  0  0  0  0  0  0  0  0  0  0  0
   17.9945   11.8891    4.4340 H   0  0  0  0  0  0  0  0  0  0  0  0
   17.0592   11.7686    2.9051 H   0  0  0  0  0  0  0  0  0  0  0  0
   18.8260   11.4441    2.9051 H   0  0  0  0  0  0  0  0  0  0  0  0
   15.8513   15.6609    2.6134 H   0  0  0  0  0  0  0  0  0  0  0  0
   16.1983   13.9830    1.9131 H   0  0  0  0  0  0  0  0  0  0  0  0
   14.9813   12.0604    2.5434 H   0  0  0  0  0  0  0  0  0  0  0  0
   12.8535   11.1592    3.4698 H   0  0  0  0  0  0  0  0  0  0  0  0
   11.3591   12.6237    4.8233 H   0  0  0  0  0  0  0  0  0  0  0  0
   11.9742   15.0059    5.2116 H   0  0  0  0  0  0  0  0  0  0  0  0
   14.0931   15.9197    4.2818 H   0  0  0  0  0  0  0  0  0  0  0  0
  2  1  1  0
  3  2  1  0
  4  3  1  0
  5  4  1  0
  6  1  1  0
  6  5  1  0
  8  7  2  0
  9  1  1  0
  9  7  1  0
 10  7  1  0
 11 10  1  0
 12  6  1  0
 13 12  1  0
 14 13  1  0
 15 12  1  0
 16 15  1  0
 17 16  2  0
 18 17  1  0
 19 18  2  0
 20 19  1  0
 21 20  2  0
 21 16  1  0
  1 22  1  6
  2 23  1  0
  2 24  1  0
  3 25  1  0
  3 26  1  0
  4 27  1  0
  4 28  1  0
  5 29  1  0
  5 30  1  0
  6 31  1  6
  9 32  1  0
 10 33  1  0
 10 34  1  0
 11 35  1  0
 11 36  1  0
 11 37  1  0
 12 38  1  1
 13 39  1  0
 13 40  1  0
 14 41  1  0
 14 42  1  0
 14 43  1  0
 15 44  1  0
 15 45  1  0
 17 46  1  0
 18 47  1  0
 19 48  1  0
 20 49  1  0
 21 50  1  0
M  CHG  2  11   1  12   1
M  END
$$$$
=
     RDKit          3D

 30 30  0  0  0  0  0  0  0  0999 V2000
   19.6920   15.6200    5.4350 C   0  0  0  0  0  0  0  0  0  0  0  0
   18.5510   16.4130    5.6100 C   0  0  0  0  0  0  0  0  0  0  0  0
   17.3820   16.1370    4.8920 C   0  0  0  0  0  0  0  0  0  0  0  0
   17.3480   15.0730    3.9880 C   0  0  0  0  0  0  0  0  0  0  0  0
   18.5090   14.3030    3.7680 C   0  0  0  0  0  0  0  0  0  0  0  0
   19.6580   14.5570    4.5240 C   0  0  0  0  0  0  0  0  0  0  0  0
   18.4580   13.1550    2.9530 N   0  0  0  0  0  0  0  0  0  0  0  0
   20.9530   15.8560    6.1890 C   0  0  0  0  0  0  0  0  0  0  0  0
   21.1050   15.5510    7.3610 O   0  0  0  0  0  0  0  0  0  0  0  0
   21.8810   16.4430    5.3910 O   0  0  0  0  0  0  0  0  0  0  0  0
   22.3110   18.6800    4.5700 C   0  0  0  0  0  0  0  0  0  0  0  0
   22.2910   17.7630    5.7790 C   0  0  0  0  0  0  0  0  0  0  0  0
   16.2570   14.7150    3.2330 O   0  0  0  0  0  0  0  0  0  0  0  0
   15.1410   14.1580    3.9250 C   0  0  0  0  0  0  0  0  0  0  0  0
   14.8200   12.8160    3.2910 C   0  0  0  0  0  0  0  0  0  0  0  0
   18.5738   17.2569    6.3152 H   0  0  0  0  0  0  0  0  0  0  0  0
   16.4874   16.7598    5.0400 H   0  0  0  0  0  0  0  0  0  0  0  0
   20.5433   13.9157    4.4018 H   0  0  0  0  0  0  0  0  0  0  0  0
   19.3092   12.5966    2.7960 H   0  0  0  0  0  0  0  0  0  0  0  0
   17.5695   12.8740    2.5141 H   0  0  0  0  0  0  0  0  0  0  0  0
   22.3338   19.7276    4.9047 H   0  0  0  0  0  0  0  0  0  0  0  0
   23.2048   18.4690    3.9645 H   0  0  0  0  0  0  0  0  0  0  0  0
   21.4089   18.5081    3.9645 H   0  0  0  0  0  0  0  0  0  0  0  0
   23.2989   17.7167    6.2171 H   0  0  0  0  0  0  0  0  0  0  0  0
   21.5789   18.1581    6.5185 H   0  0  0  0  0  0  0  0  0  0  0  0
   15.3914   14.0191    4.9871 H   0  0  0  0  0  0  0  0  0  0  0  0
   14.2735   14.8309    3.8567 H   0  0  0  0  0  0  0  0  0  0  0  0
   14.6418   12.0709    4.0803 H   0  0  0  0  0  0  0  0  0  0  0  0
   13.9194   12.9115    2.6667 H   0  0  0  0  0  0  0  0  0  0  0  0
   15.6664   12.4936    2.6667 H   0  0  0  0  0  0  0  0  0  0  0  0
  2  1  2  0
  3  2  1  0
  4  3  2  0
  5  4  1  0
  6  5  2  0
  6  1  1  0
  7  5  1  0
  8  1  1  0
  9  8  2  0
 10  8  1  0
 12 11  1  0
 12 10  1  0
 13  4  1  0
 14 13  1  0
 15 14  1  0
  2 16  1  0
  3 17  1  0
  6 18  1  0
  7 19  1  0
  7 20  1  0
 11 21  1  0
 11 22  1  0
 11 23  1  0
 12 24  1  0
 12 25  1  0
 14 26  1  0
 14 27  1  0
 15 28  1  0
 15 29  1  0
 15 30  1  0
M  END
$$$$
=
     RDKit          3D

 42 43  0  0  0  0  0  0  0  0999 V2000
   16.5800   12.8930    2.9990 C   0  0  0  0  0  0  0  0  0  0  0  0
   17.5580   12.1640    2.8510 O   0  0  0  0  0  0  0  0  0  0  0  0
   16.6010   14.1870    3.4950 N   0  0  0  0  0  0  0  0  0  0  0  0
   17.7770   14.7820    3.8250 N   0  0  0  0  0  0  0  0  0  0  0  0
   17.8030   15.6390    4.8040 C   0  0  0  0  0  0  0  0  0  0  0  0
   16.5940   15.9950    5.6470 C   0  0  0  0  0  0  0  0  0  0  0  0
   19.1040   16.3080    5.1170 C   0  0  0  0  0  0  0  0  0  0  0  0
   19.1460   17.7050    5.1890 C   0  0  0  0  0  0  0  0  0  0  0  0
   20.3470   18.3610    5.4790 C   0  0  0  0  0  0  0  0  0  0  0  0
   21.5070   17.6340    5.7520 C   0  0  0  0  0  0  0  0  0  0  0  0
   21.4690   16.2420    5.6370 C   0  0  0  0  0  0  0  0  0  0  0  0
   20.2720   15.5770    5.3450 C   0  0  0  0  0  0  0  0  0  0  0  0
   22.7280   18.2940    5.9240 N   0  0  0  0  0  0  0  0  0  0  0  0
   15.1730   12.4170    2.6390 C   0  0  0  0  0  0  0  0  0  0  0  0
   14.3350   12.3420    3.7920 O   0  0  0  0  0  0  0  0  0  0  0  0
   10.4710   13.9120    3.5710 C   0  0  0  0  0  0  0  0  0  0  0  0
   11.4300   14.4070    4.4540 C   0  0  0  0  0  0  0  0  0  0  0  0
   12.7110   13.8530    4.4960 C   0  0  0  0  0  0  0  0  0  0  0  0
   13.0520   12.7950    3.6540 C   0  0  0  0  0  0  0  0  0  0  0  0
   12.0950   12.2970    2.7690 C   0  0  0  0  0  0  0  0  0  0  0  0
   10.8090   12.8540    2.7270 C   0  0  0  0  0  0  0  0  0  0  0  0
    8.2050   13.8470    4.2850 C   0  0  0  0  0  0  0  0  0  0  0  0
    9.2590   14.5400    3.6290 O   0  0  0  0  0  0  0  0  0  0  0  0
   15.7171   14.7022    3.6145 H   0  0  0  0  0  0  0  0  0  0  0  0
   16.8548   15.9182    6.7129 H   0  0  0  0  0  0  0  0  0  0  0  0
   16.2788   17.0241    5.4198 H   0  0  0  0  0  0  0  0  0  0  0  0
   15.7714   15.3010    5.4198 H   0  0  0  0  0  0  0  0  0  0  0  0
   18.2304   18.2899    5.0168 H   0  0  0  0  0  0  0  0  0  0  0  0
   20.3776   19.4605    5.4920 H   0  0  0  0  0  0  0  0  0  0  0  0
   22.3921   15.6606    5.7778 H   0  0  0  0  0  0  0  0  0  0  0  0
   20.2515   14.4783    5.2951 H   0  0  0  0  0  0  0  0  0  0  0  0
   23.5815   17.7538    6.1253 H   0  0  0  0  0  0  0  0  0  0  0  0
   22.7737   19.3203    5.8494 H   0  0  0  0  0  0  0  0  0  0  0  0
   14.7300   13.1223    1.9205 H   0  0  0  0  0  0  0  0  0  0  0  0
   15.2504   11.4102    2.2026 H   0  0  0  0  0  0  0  0  0  0  0  0
   11.1750   15.2416    5.1236 H   0  0  0  0  0  0  0  0  0  0  0  0
   13.4566   14.2540    5.1984 H   0  0  0  0  0  0  0  0  0  0  0  0
   12.3511   11.4622    2.1001 H   0  0  0  0  0  0  0  0  0  0  0  0
   10.0625   12.4545    2.0247 H   0  0  0  0  0  0  0  0  0  0  0  0
    8.3330   13.9312    5.3743 H   0  0  0  0  0  0  0  0  0  0  0  0
    7.2398   14.2873    3.9941 H   0  0  0  0  0  0  0  0  0  0  0  0
    8.2267   12.7864    3.9941 H   0  0  0  0  0  0  0  0  0  0  0  0
  2  1  2  0
  3  1  1  0
  4  3  1  0
  5  4  2  0
  6  5  1  0
  7  5  1  0
  8  7  2  0
  9  8  1  0
 10  9  2  0
 11 10  1  0
 12  7  1  0
 12 11  2  0
 13 10  1  0
 14  1  1  0
 15 14  1  0
 17 16  2  0
 18 17  1  0
 19 18  2  0
 19 15  1  0
 20 19  1  0
 21 16  1  0
 21 20  2  0
 23 22  1  0
 23 16  1  0
  3 24  1  0
  6 25  1  0
  6 26  1  0
  6 27  1  0
  8 28  1  0
  9 29  1  0
 11 30  1  0
 12 31  1  0
 13 32  1  0
 13 33  1  0
 14 34  1  0
 14 35  1  0
 17 36  1  0
 18 37  1  0
 20 38  1  0
 21 39  1  0
 22 40  1  0
 22 41  1  0
 22 42  1  0
M  END
$$$$
=
     RDKit          3D

 22 24  0  0  0  0  0  0  0  0999 V2000
   15.9510   13.0500    2.8970 C   0  0  0  0  0  0  0  0  0  0  0  0
   15.7980   14.2870    3.5250 C   0  0  0  0  0  0  0  0  0  0  0  0
   16.9090   14.9750    4.0280 C   0  0  0  0  0  0  0  0  0  0  0  0
   18.1920   14.4170    3.9480 C   0  0  0  0  0  0  0  0  0  0  0  0
   18.3370   13.1510    3.3710 C   0  0  0  0  0  0  0  0  0  0  0  0
   17.2190   12.4690    2.8700 C   0  0  0  0  0  0  0  0  0  0  0  0
   19.3310   15.1960    4.4990 C   0  0  0  0  0  0  0  0  0  0  0  0
   19.9310   16.1510    3.8310 N   0  0  0  0  0  0  0  0  0  0  0  0
   20.9070   16.6180    4.6480 N   0  0  0  0  0  0  0  0  0  0  0  0
   21.0840   16.0870    5.8770 C   0  0  0  0  0  0  0  0  0  0  0  0
   19.9480   14.8470    6.1460 S   0  0  0  0  0  0  0  0  0  0  0  0
   22.0640   16.6570    6.5180 N   0  0  0  0  0  0  0  0  0  0  0  0
   22.5620   17.6300    5.6490 N   0  0  0  0  0  0  0  0  0  0  0  0
   21.8500   17.5870    4.5330 C   0  0  0  0  0  0  0  0  0  0  0  0
   14.8290   12.3140    2.5090 N   0  0  0  0  0  0  0  0  0  0  0  0
   14.7944   14.7259    3.6258 H   0  0  0  0  0  0  0  0  0  0  0  0
   16.7733   15.9637    4.4907 H   0  0  0  0  0  0  0  0  0  0  0  0
   19.3330   12.6882    3.3100 H   0  0  0  0  0  0  0  0  0  0  0  0
   17.3437   11.4603    2.4492 H   0  0  0  0  0  0  0  0  0  0  0  0
   21.9990   18.2325    3.6548 H   0  0  0  0  0  0  0  0  0  0  0  0
   14.9466   11.4016    2.0458 H   0  0  0  0  0  0  0  0  0  0  0  0
   13.8841   12.6837    2.6861 H   0  0  0  0  0  0  0  0  0  0  0  0
  2  1  2  0
  3  2  1  0
  4  3  2  0
  5  4  1  0
  6  1  1  0
  6  5  2  0
  7  4  1  0
  8  7  2  0
  9  8  1  0
 10  9  1  0
 11  7  1  0
 11 10  1  0
 12 10  2  0
 13 12  1  0
 14  9  1  0
 14 13  2  0
 15  1  1  0
  2 16  1  0
  3 17  1  0
  5 18  1  0
  6 19  1  0
 14 20  1  0
 15 21  1  0
 15 22  1  0
M  END
$$$$
=
     RDKit          3D

 42 42  0  0  0  0  0  0  0  0999 V2000
   15.4710   15.8200    4.7160 O   0  0  0  0  0  0  0  0  0  0  0  0
   15.2610   14.6750    3.9800 C   0  0  0  0  0  0  0  0  0  0  0  0
   16.3520   14.0620    3.3420 C   0  0  0  0  0  0  0  0  0  0  0  0
   16.1380   12.8780    2.6380 C   0  0  0  0  0  0  0  0  0  0  0  0
   14.8600   12.3120    2.5900 C   0  0  0  0  0  0  0  0  0  0  0  0
   13.7840   12.9200    3.2420 C   0  0  0  0  0  0  0  0  0  0  0  0
   13.9760   14.1050    3.9530 C   0  0  0  0  0  0  0  0  0  0  0  0
   17.5570   14.7120    3.4410 O   0  0  0  0  0  0  0  0  0  0  0  0
   18.6810   13.9110    3.7950 C   0  0  0  0  0  0  0  0  0  0  0  0
   12.9920   14.7950    4.6150 O   0  0  0  0  0  0  0  0  0  0  0  0
   11.6560   14.3470    4.4050 C   0  0  0  0  0  0  0  0  0  0  0  0
   15.7020   15.4790    6.0810 C   0  0  0  0  0  0  0  0  0  0  0  0
   16.9520   16.2330    6.5220 C   0  0  0  0  0  0  0  0  0  0  0  0
   17.4890   17.0780    5.4040 N   0  0  0  0  0  4  0  0  0  0  0  0
   18.9760   17.2220    5.4250 C   0  0  0  0  0  0  0  0  0  0  0  0
   19.4280   18.2210    4.3640 C   0  0  0  0  0  0  0  0  0  0  0  0
   19.6690   17.4650    1.9370 C   0  0  0  0  0  0  0  0  0  0  0  0
   20.3560   17.6710    3.2780 C   0  0  0  0  0  0  0  0  0  0  0  0
   16.9754   12.3882    2.1195 H   0  0  0  0  0  0  0  0  0  0  0  0
   14.7000   11.3773    2.0325 H   0  0  0  0  0  0  0  0  0  0  0  0
   12.7842   12.4637    3.1946 H   0  0  0  0  0  0  0  0  0  0  0  0
   18.7604   13.8544    4.8907 H   0  0  0  0  0  0  0  0  0  0  0  0
   18.5539   12.8987    3.3838 H   0  0  0  0  0  0  0  0  0  0  0  0
   19.5964   14.3615    3.3838 H   0  0  0  0  0  0  0  0  0  0  0  0
   11.1672   14.1831    5.3767 H   0  0  0  0  0  0  0  0  0  0  0  0
   11.0991   15.1075    3.8381 H   0  0  0  0  0  0  0  0  0  0  0  0
   11.6702   13.4045    3.8381 H   0  0  0  0  0  0  0  0  0  0  0  0
   14.8418   15.7804    6.6967 H   0  0  0  0  0  0  0  0  0  0  0  0
   15.8360   14.3935    6.1978 H   0  0  0  0  0  0  0  0  0  0  0  0
   16.7000   16.8810    7.3744 H   0  0  0  0  0  0  0  0  0  0  0  0
   17.7209   15.5012    6.8105 H   0  0  0  0  0  0  0  0  0  0  0  0
   17.2161   16.6464    4.5095 H   0  0  0  0  0  0  0  0  0  0  0  0
   17.0922   18.0213    5.5206 H   0  0  0  0  0  0  0  0  0  0  0  0
   19.2918   17.5785    6.4166 H   0  0  0  0  0  0  0  0  0  0  0  0
   19.4325   16.2441    5.2122 H   0  0  0  0  0  0  0  0  0  0  0  0
   18.5287   18.6171    3.8696 H   0  0  0  0  0  0  0  0  0  0  0  0
   20.0164   18.9792    4.9015 H   0  0  0  0  0  0  0  0  0  0  0  0
   18.6274   17.1527    2.1028 H   0  0  0  0  0  0  0  0  0  0  0  0
   19.6834   18.4070    1.3691 H   0  0  0  0  0  0  0  0  0  0  0  0
   20.1993   16.6864    1.3691 H   0  0  0  0  0  0  0  0  0  0  0  0
   20.7532   16.7031    3.6175 H   0  0  0  0  0  0  0  0  0  0  0  0
   21.1489   18.4175    3.1229 H   0  0  0  0  0  0  0  0  0  0  0  0
  2  1  1  0
  3  2  2  0
  4  3  1  0
  5  4  2  0
  6  5  1  0
  7  6  2  0
  7  2  1  0
  8  3  1  0
  9  8  1  0
 10  7  1  0
 11 10  1  0
 12  1  1  0
 13 12  1  0
 14 13  1  0
 15 14  1  0
 16 15  1  0
 18 17  1  0
 18 16  1  0
  4 19  1  0
  5 20  1  0
  6 21  1  0
  9 22  1  0
  9 23  1  0
  9 24  1  0
 11 25  1  0
 11 26  1  0
 11 27  1  0
 12 28  1  0
 12 29  1  0
 13 30  1  0
 13 31  1  0
 14 32  1  0
 14 33  1  0
 15 34  1  0
 15 35  1  0
 16 36  1  0
 16 37  1  0
 17 38  1  0
 17 39  1  0
 17 40  1  0
 18 41  1  0
 18 42  1  0
M  CHG  1  14   1
M  END
$$$$
=
     RDKit          3D

 40 41  0  0  0  0  0  0  0  0999 V2000
   19.7460   15.9830    5.5030 C   0  0  0  0  0  0  0  0  0  0  0  0
   19.7840   15.0870    4.2680 C   0  0  0  0  0  0  0  0  0  0  0  0
   18.4470   14.4140    4.0180 C   0  0  0  0  0  0  0  0  0  0  0  0
   17.3480   15.4730    3.8550 N   0  0  0  0  0  4  0  0  0  0  0  0
   17.2560   16.2900    5.1450 C   0  0  0  0  0  0  0  0  0  0  0  0
   18.5850   16.9710    5.4310 C   0  0  0  0  0  0  0  0  0  0  0  0
   16.0150   14.8470    3.3790 C   0  0  0  0  0  0  0  0  0  0  0  0
   16.0750   13.3200    3.2870 C   0  0  0  0  0  0  0  0  0  0  0  0
   14.7570   12.7210    2.7850 C   0  0  0  0  0  0  0  0  0  0  0  0
   13.5720   13.4440    3.3270 N   0  0  0  0  0  4  0  0  0  0  0  0
   13.8050   14.2230    4.5660 C   0  0  0  0  0  0  0  0  0  0  0  0
   14.8740   15.2870    4.3230 C   0  0  0  0  0  0  0  0  0  0  0  0
   21.0440   16.7580    5.5940 C   0  0  0  0  0  0  0  0  0  0  0  0
   21.8010   16.6720    6.5510 O   0  0  0  0  0  0  0  0  0  0  0  0
   22.1450   18.5990    4.6580 C   0  0  0  0  0  0  0  0  0  0  0  0
   21.2280   17.5120    4.4840 O   0  0  0  0  0  0  0  0  0  0  0  0
   19.6110   15.3461    6.3896 H   0  0  0  0  0  0  0  0  0  0  0  0
   20.0436   15.6993    3.3918 H   0  0  0  0  0  0  0  0  0  0  0  0
   20.5352   14.3018    4.4385 H   0  0  0  0  0  0  0  0  0  0  0  0
   18.5093   13.8097    3.1010 H   0  0  0  0  0  0  0  0  0  0  0  0
   18.2021   13.7686    4.8745 H   0  0  0  0  0  0  0  0  0  0  0  0
   17.5894   16.1315    3.1007 H   0  0  0  0  0  0  0  0  0  0  0  0
   16.4722   17.0541    5.0361 H   0  0  0  0  0  0  0  0  0  0  0  0
   17.0107   15.6167    5.9796 H   0  0  0  0  0  0  0  0  0  0  0  0
   18.7888   17.6967    4.6298 H   0  0  0  0  0  0  0  0  0  0  0  0
   18.5038   17.4624    6.4118 H   0  0  0  0  0  0  0  0  0  0  0  0
   15.8228   15.2129    2.3596 H   0  0  0  0  0  0  0  0  0  0  0  0
   16.8802   13.0378    2.5927 H   0  0  0  0  0  0  0  0  0  0  0  0
   16.2631   12.9267    4.2969 H   0  0  0  0  0  0  0  0  0  0  0  0
   14.7363   12.7788    1.6867 H   0  0  0  0  0  0  0  0  0  0  0  0
   14.7051   11.6778    3.1300 H   0  0  0  0  0  0  0  0  0  0  0  0
   13.2398   14.0954    2.6016 H   0  0  0  0  0  0  0  0  0  0  0  0
   12.8894   12.7148    3.5784 H   0  0  0  0  0  0  0  0  0  0  0  0
   12.8677   14.7117    4.8704 H   0  0  0  0  0  0  0  0  0  0  0  0
   14.1472   13.5431    5.3601 H   0  0  0  0  0  0  0  0  0  0  0  0
   14.3862   16.1697    3.8838 H   0  0  0  0  0  0  0  0  0  0  0  0
   15.3379   15.4921    5.2991 H   0  0  0  0  0  0  0  0  0  0  0  0
   22.2985   18.7809    5.7319 H   0  0  0  0  0  0  0  0  0  0  0  0
   23.1068   18.3462    4.1878 H   0  0  0  0  0  0  0  0  0  0  0  0
   21.7338   19.5045    4.1878 H   0  0  0  0  0  0  0  0  0  0  0  0
  2  1  1  0
  3  2  1  0
  4  3  1  0
  5  4  1  0
  6  5  1  0
  6  1  1  0
  7  4  1  0
  8  7  1  0
  9  8  1  0
 10  9  1  0
 11 10  1  0
 12 11  1  0
 12  7  1  0
 13  1  1  0
 14 13  2  0
 16 13  1  0
 16 15  1  0
  1 17  1  0
  2 18  1  0
  2 19  1  0
  3 20  1  0
  3 21  1  0
  4 22  1  0
  5 23  1  0
  5 24  1  0
  6 25  1  0
  6 26  1  0
  7 27  1  0
  8 28  1  0
  8 29  1  0
  9 30  1  0
  9 31  1  0
 10 32  1  0
 10 33  1  0
 11 34  1  0
 11 35  1  0
 12 36  1  0
 12 37  1  0
 15 38  1  0
 15 39  1  0
 15 40  1  0
M  CHG  2   4   1  10   1
M  END
$$$$
=
     RDKit          3D

 34 35  0  0  0  0  0  0  0  0999 V2000
   21.7570   18.3390    5.0470 C   0  0  0  0  0  0  0  0  0  0  0  0
   21.8680   18.3920    3.6530 C   0  0  0  0  0  0  0  0  0  0  0  0
   20.7570   18.1670    2.8340 C   0  0  0  0  0  0  0  0  0  0  0  0
   19.5320   17.8310    3.4030 C   0  0  0  0  0  0  0  0  0  0  0  0
   19.4390   17.6850    4.7890 C   0  0  0  0  0  0  0  0  0  0  0  0
   20.5430   17.9430    5.6090 C   0  0  0  0  0  0  0  0  0  0  0  0
   18.1520   17.3300    5.4210 C   0  0  0  0  0  0  0  0  0  0  0  0
   17.7230   18.1000    6.2770 O   0  0  0  0  0  0  0  0  0  0  0  0
   17.4890   16.1710    5.0140 N   0  0  0  0  0  0  0  0  0  0  0  0
   16.1540   15.9210    5.5440 C   0  0  0  0  0  0  0  0  0  0  0  0
   15.1620   15.6850    4.4060 C   0  0  0  0  0  0  0  0  0  0  0  0
   15.7550   14.8760    3.2480 C   0  0  0  0  0  0  0  0  0  0  0  0
   17.0060   14.1170    3.6750 C   0  0  0  0  0  0  0  0  0  0  0  0
   18.0840   15.0810    4.2140 C   0  0  2  0  0  0  0  0  0  0  0  0
   19.1170   14.2880    5.0200 C   0  0  0  0  0  0  0  0  0  0  0  0
   22.8980   18.4630    5.8490 N   0  0  0  0  0  0  0  0  0  0  0  0
   22.8432   18.6138    3.1949 H   0  0  0  0  0  0  0  0  0  0  0  0
   20.8511   18.2554    1.7416 H   0  0  0  0  0  0  0  0  0  0  0  0
   18.6464   17.6820    2.7678 H   0  0  0  0  0  0  0  0  0  0  0  0
   20.4535   17.8333    6.6999 H   0  0  0  0  0  0  0  0  0  0  0  0
   16.1818   15.0313    6.1903 H   0  0  0  0  0  0  0  0  0  0  0  0
   15.8303   16.7994    6.1217 H   0  0  0  0  0  0  0  0  0  0  0  0
   14.2945   15.1394    4.8057 H   0  0  0  0  0  0  0  0  0  0  0  0
   14.8813   16.6708    4.0067 H   0  0  0  0  0  0  0  0  0  0  0  0
   15.0032   14.1548    2.8949 H   0  0  0  0  0  0  0  0  0  0  0  0
   16.0347   15.5765    2.4473 H   0  0  0  0  0  0  0  0  0  0  0  0
   16.7387   13.3993    4.4646 H   0  0  0  0  0  0  0  0  0  0  0  0
   17.4131   13.5929    2.7977 H   0  0  0  0  0  0  0  0  0  0  0  0
   18.5896   15.5602    3.3627 H   0  0  0  0  0  0  0  0  0  0  0  0
   18.9314   14.4305    6.0948 H   0  0  0  0  0  0  0  0  0  0  0  0
   19.0339   13.2195    4.7720 H   0  0  0  0  0  0  0  0  0  0  0  0
   20.1277   14.6444    4.7720 H   0  0  0  0  0  0  0  0  0  0  0  0
   22.8133   18.4236    6.8748 H   0  0  0  0  0  0  0  0  0  0  0  0
   23.8221   18.5936    5.4132 H   0  0  0  0  0  0  0  0  0  0  0  0
  2  1  2  0
  3  2  1  0
  4  3  2  0
  5  4  1  0
  6  5  2  0
  6  1  1  0
  7  5  1  0
  8  7  2  0
  9  7  1  0
 10  9  1  0
 11 10  1  0
 12 11  1  0
 13 12  1  0
 14 13  1  0
 14  9  1  0
 15 14  1  0
 16  1  1  0
  2 17  1  0
  3 18  1  0
  4 19  1  0
  6 20  1  0
 10 21  1  0
 10 22  1  0
 11 23  1  0
 11 24  1  0
 12 25  1  0
 12 26  1  0
 13 27  1  0
 13 28  1  0
 14 29  1  6
 15 30  1  0
 15 31  1  0
 15 32  1  0
 16 33  1  0
 16 34  1  0
M  END
$$$$
=
     RDKit          3D

 44 46  0  0  0  0  0  0  0  0999 V2000
   26.2490   26.6350   14.4710 N   0  0  0  0  0  0  0  0  0  0  0  0
   25.2960   26.5320   15.4240 C   0  0  0  0  0  0  0  0  0  0  0  0
   24.5650   25.6560   15.8200 O   0  0  0  0  0  0  0  0  0  0  0  0
   25.5530   27.9820   15.8950 C   0  0  2  0  0  0  0  0  0  0  0  0
   26.6810   27.9980   14.8030 C   0  0  1  0  0  0  0  0  0  0  0  0
   27.4270   24.0650   11.3430 C   0  0  0  0  0  0  0  0  0  0  0  0
   26.5130   23.6400   12.3080 C   0  0  0  0  0  0  0  0  0  0  0  0
   26.1170   24.4870   13.3470 C   0  0  0  0  0  0  0  0  0  0  0  0
   26.6340   25.7810   13.4370 C   0  0  0  0  0  0  0  0  0  0  0  0
   27.5430   26.2090   12.4650 C   0  0  0  0  0  0  0  0  0  0  0  0
   27.9380   25.3570   11.4240 C   0  0  0  0  0  0  0  0  0  0  0  0
   27.7160   23.1330   10.3890 O   0  0  0  0  0  0  0  0  0  0  0  0
   27.5160   20.7150   10.4030 C   0  0  0  0  0  0  0  0  0  0  0  0
   28.3640   21.9200   10.7700 C   0  0  0  0  0  0  0  0  0  0  0  0
   28.1620   28.2360   15.3360 C   0  0  0  0  0  0  0  0  0  0  0  0
   28.7990   29.4920   15.3470 C   0  0  0  0  0  0  0  0  0  0  0  0
   30.1180   29.6460   15.7800 C   0  0  0  0  0  0  0  0  0  0  0  0
   30.8510   28.5420   16.2150 C   0  0  0  0  0  0  0  0  0  0  0  0
   30.2590   27.2860   16.2270 C   0  0  0  0  0  0  0  0  0  0  0  0
   28.9350   27.1480   15.7960 C   0  0  0  0  0  0  0  0  0  0  0  0
   30.8510   26.1180   16.6140 O   0  0  0  0  0  0  0  0  0  0  0  0
   29.9830   25.0310   16.9270 C   0  0  0  0  0  0  0  0  0  0  0  0
   25.9860   27.9750   17.3250 N   0  0  0  0  0  4  0  0  0  0  0  0
   24.8162   28.7979   15.9327 H   0  0  0  0  0  0  0  0  0  0  0  0
   26.7612   28.7665   14.0200 H   0  0  0  0  0  0  0  0  0  0  0  0
   26.0979   22.6230   12.2502 H   0  0  0  0  0  0  0  0  0  0  0  0
   25.3948   24.1326   14.0972 H   0  0  0  0  0  0  0  0  0  0  0  0
   27.9539   27.2280   12.5176 H   0  0  0  0  0  0  0  0  0  0  0  0
   28.6546   25.7111   10.6683 H   0  0  0  0  0  0  0  0  0  0  0  0
   27.1670   20.2191   11.3207 H   0  0  0  0  0  0  0  0  0  0  0  0
   26.6489   21.0434    9.8112 H   0  0  0  0  0  0  0  0  0  0  0  0
   28.1179   20.0096    9.8112 H   0  0  0  0  0  0  0  0  0  0  0  0
   28.5297   21.9262   11.8574 H   0  0  0  0  0  0  0  0  0  0  0  0
   29.3232   21.8509   10.2360 H   0  0  0  0  0  0  0  0  0  0  0  0
   28.2420   30.3767   15.0049 H   0  0  0  0  0  0  0  0  0  0  0  0
   30.5813   30.6437   15.7779 H   0  0  0  0  0  0  0  0  0  0  0  0
   31.8925   28.6656   16.5468 H   0  0  0  0  0  0  0  0  0  0  0  0
   28.4765   26.1483   15.8165 H   0  0  0  0  0  0  0  0  0  0  0  0
   29.9018   24.9294   18.0193 H   0  0  0  0  0  0  0  0  0  0  0  0
   28.9869   25.2229   16.5016 H   0  0  0  0  0  0  0  0  0  0  0  0
   30.3906   24.1021   16.5016 H   0  0  0  0  0  0  0  0  0  0  0  0
   25.1562   27.9884   17.9351 H   0  0  0  0  0  0  0  0  0  0  0  0
   26.5365   27.1250   17.5129 H   0  0  0  0  0  0  0  0  0  0  0  0
   26.5637   28.8068   17.5129 H   0  0  0  0  0  0  0  0  0  0  0  0
  2  1  1  0
  3  2  2  0
  4  2  1  0
  5  1  1  0
  5  4  1  0
  7  6  2  0
  8  7  1  0
  9  8  2  0
  9  1  1  0
 10  9  1  0
 11 10  2  0
 11  6  1  0
 12  6  1  0
 14 13  1  0
 14 12  1  0
 15  5  1  0
 16 15  2  0
 17 16  1  0
 18 17  2  0
 19 18  1  0
 20 19  2  0
 20 15  1  0
 21 19  1  0
 22 21  1  0
 23  4  1  0
  4 24  1  1
  5 25  1  6
  7 26  1  0
  8 27  1  0
 10 28  1  0
 11 29  1  0
 13 30  1  0
 13 31  1  0
 13 32  1  0
 14 33  1  0
 14 34  1  0
 16 35  1  0
 17 36  1  0
 18 37  1  0
 20 38  1  0
 22 39  1  0
 22 40  1  0
 22 41  1  0
 23 42  1  0
 23 43  1  0
 23 44  1  0
M  CHG  1  23   1
M  END
$$$$
=
     RDKit          3D

 27 28  0  0  0  0  0  0  0  0999 V2000
   16.7090   14.3800    3.7860 C   0  0  0  0  0  0  0  0  0  0  0  0
   16.0470   13.3220    3.1200 C   0  0  0  0  0  0  0  0  0  0  0  0
   14.6530   13.1870    3.1310 C   0  0  0  0  0  0  0  0  0  0  0  0
   13.8730   14.1190    3.8200 C   0  0  0  0  0  0  0  0  0  0  0  0
   14.4850   15.1780    4.4920 C   0  0  0  0  0  0  0  0  0  0  0  0
   15.8810   15.2990    4.4720 C   0  0  0  0  0  0  0  0  0  0  0  0
   18.2920   14.5160    3.7830 C   0  0  0  0  0  0  0  0  0  0  0  0
   18.9350   15.8660    3.3430 C   0  0  0  0  0  0  0  0  0  0  0  0
   20.0130   15.6590    4.4240 C   0  0  0  0  0  0  0  0  0  0  0  0
   19.0380   14.7030    5.1370 C   0  0  0  0  0  0  0  0  0  0  0  0
   18.8320   13.3710    3.0100 N   0  0  0  0  0  4  0  0  0  0  0  0
   12.4100   13.9830    3.8380 N   0  0  0  0  0  4  0  0  0  0  0  0
   11.7720   14.7810    4.5360 O   0  0  0  0  0  0  0  0  0  0  0  0
   11.9120   13.0870    3.1440 O   0  0  0  0  0  1  0  0  0  0  0  0
   16.6480   12.5795    2.5745 H   0  0  0  0  0  0  0  0  0  0  0  0
   14.1746   12.3511    2.5996 H   0  0  0  0  0  0  0  0  0  0  0  0
   13.8743   15.9144    5.0349 H   0  0  0  0  0  0  0  0  0  0  0  0
   16.3490   16.1376    5.0083 H   0  0  0  0  0  0  0  0  0  0  0  0
   19.3196   15.8721    2.3124 H   0  0  0  0  0  0  0  0  0  0  0  0
   18.3425   16.7917    3.2992 H   0  0  0  0  0  0  0  0  0  0  0  0
   20.9368   15.1835    4.0627 H   0  0  0  0  0  0  0  0  0  0  0  0
   20.4698   16.5104    4.9498 H   0  0  0  0  0  0  0  0  0  0  0  0
   19.5045   13.7873    5.5293 H   0  0  0  0  0  0  0  0  0  0  0  0
   18.5000   15.0120    6.0453 H   0  0  0  0  0  0  0  0  0  0  0  0
   19.1729   12.6482    3.6599 H   0  0  0  0  0  0  0  0  0  0  0  0
   18.0884   12.9761    2.4167 H   0  0  0  0  0  0  0  0  0  0  0  0
   19.6097   13.6936    2.4167 H   0  0  0  0  0  0  0  0  0  0  0  0
  2  1  2  0
  3  2  1  0
  4  3  2  0
  5  4  1  0
  6  5  2  0
  6  1  1  0
  7  1  1  0
  8  7  1  0
  9  8  1  0
 10  9  1  0
 10  7  1  0
 11  7  1  0
 12  4  1  0
 13 12  2  0
 14 12  1  0
  2 15  1  0
  3 16  1  0
  5 17  1  0
  6 18  1  0
  8 19  1  0
  8 20  1  0
  9 21  1  0
  9 22  1  0
 10 23  1  0
 10 24  1  0
 11 25  1  0
 11 26  1  0
 11 27  1  0
M  CHG  3  11   1  12   1  14  -1
M  END
$$$$
=
     RDKit          3D

 31 32  0  0  0  0  0  0  0  0999 V2000
   15.6670   15.0970    4.5900 C   0  0  0  0  0  0  0  0  0  0  0  0
   15.8450   15.7480    5.8130 C   0  0  0  0  0  0  0  0  0  0  0  0
   17.0750   16.3270    6.1130 C   0  0  0  0  0  0  0  0  0  0  0  0
   18.0880   16.2320    5.1750 C   0  0  0  0  0  0  0  0  0  0  0  0
   17.9550   15.6280    3.9790 N   0  0  0  0  0  0  0  0  0  0  0  0
   16.7480   15.0730    3.7140 C   0  0  0  0  0  0  0  0  0  0  0  0
   14.5360   13.1490    3.4950 C   0  0  0  0  0  0  0  0  0  0  0  0
   14.3500   14.4730    4.2210 C   0  0  0  0  0  0  0  0  0  0  0  0
   19.2910   16.8330    5.4940 O   0  0  0  0  0  0  0  0  0  0  0  0
   20.3570   16.4910    4.5980 C   0  0  2  0  0  0  0  0  0  0  0  0
   21.2220   15.4450    5.2970 C   0  0  0  0  0  0  0  0  0  0  0  0
   22.0820   16.2480    6.2430 N   0  0  0  0  0  4  0  0  0  0  0  0
   22.0600   17.6760    5.7800 C   0  0  0  0  0  0  0  0  0  0  0  0
   21.3420   17.6420    4.4440 C   0  0  0  0  0  0  0  0  0  0  0  0
   15.0174   15.8029    6.5355 H   0  0  0  0  0  0  0  0  0  0  0  0
   17.2372   16.8457    7.0693 H   0  0  0  0  0  0  0  0  0  0  0  0
   16.6138   14.5713    2.7443 H   0  0  0  0  0  0  0  0  0  0  0  0
   14.6497   12.3398    4.2314 H   0  0  0  0  0  0  0  0  0  0  0  0
   13.6570   12.9500    2.8643 H   0  0  0  0  0  0  0  0  0  0  0  0
   15.4358   13.1999    2.8643 H   0  0  0  0  0  0  0  0  0  0  0  0
   13.7996   15.1642    3.5657 H   0  0  0  0  0  0  0  0  0  0  0  0
   13.7917   14.2789    5.1487 H   0  0  0  0  0  0  0  0  0  0  0  0
   19.9000   16.1903    3.6437 H   0  0  0  0  0  0  0  0  0  0  0  0
   20.5971   14.7287    5.8505 H   0  0  0  0  0  0  0  0  0  0  0  0
   21.8171   14.8491    4.5893 H   0  0  0  0  0  0  0  0  0  0  0  0
   21.7056   16.1836    7.1996 H   0  0  0  0  0  0  0  0  0  0  0  0
   23.0462   15.8858    6.2494 H   0  0  0  0  0  0  0  0  0  0  0  0
   21.5141   18.3069    6.4968 H   0  0  0  0  0  0  0  0  0  0  0  0
   23.0716   18.0997    5.6958 H   0  0  0  0  0  0  0  0  0  0  0  0
   22.0481   17.4479    3.6232 H   0  0  0  0  0  0  0  0  0  0  0  0
   20.8514   18.5951    4.1973 H   0  0  0  0  0  0  0  0  0  0  0  0
  2  1  2  0
  3  2  1  0
  4  3  2  0
  5  4  1  0
  6  1  1  0
  6  5  2  0
  8  7  1  0
  8  1  1  0
  9  4  1  0
 10  9  1  0
 11 10  1  0
 12 11  1  0
 13 12  1  0
 14 10  1  0
 14 13  1  0
  2 15  1  0
  3 16  1  0
  6 17  1  0
  7 18  1  0
  7 19  1  0
  7 20  1  0
  8 21  1  0
  8 22  1  0
 10 23  1  6
 11 24  1  0
 11 25  1  0
 12 26  1  0
 12 27  1  0
 13 28  1  0
 13 29  1  0
 14 30  1  0
 14 31  1  0
M  CHG  1  12   1
M  END
$$$$
=
     RDKit          3D

 43 44  0  0  0  0  0  0  0  0999 V2000
   19.0810   16.1970    5.2610 C   0  0  2  0  0  0  0  0  0  0  0  0
   20.2670   16.6820    6.1120 C   0  0  0  0  0  0  0  0  0  0  0  0
   21.0720   15.4280    6.4280 C   0  0  0  0  0  0  0  0  0  0  0  0
   20.0140   14.3780    6.6710 C   0  0  0  0  0  0  0  0  0  0  0  0
   18.9910   14.6880    5.6410 N   0  0  0  0  0  4  0  0  0  0  0  0
   20.0200   17.3060    1.6290 C   0  0  0  0  0  0  0  0  0  0  0  0
   19.8010   17.3730    3.0720 N   0  0  0  0  0  0  0  0  0  0  0  0
   19.4090   16.2290    3.7310 C   0  0  0  0  0  0  0  0  0  0  0  0
   19.2920   15.1360    3.1510 O   0  0  0  0  0  0  0  0  0  0  0  0
   19.9890   18.7010    3.6470 C   0  0  0  0  0  0  0  0  0  0  0  0
   17.7030   16.8340    5.5490 C   0  0  0  0  0  0  0  0  0  0  0  0
   16.5600   15.8600    5.8710 C   0  0  0  0  0  0  0  0  0  0  0  0
   15.3630   16.0700    4.9340 C   0  0  0  0  0  0  0  0  0  0  0  0
   15.0690   14.8210    4.1530 C   0  0  0  0  0  0  0  0  0  0  0  0
   13.8110   14.2150    4.1900 C   0  0  0  0  0  0  0  0  0  0  0  0
   13.5920   13.0380    3.4780 C   0  0  0  0  0  0  0  0  0  0  0  0
   14.6450   12.4990    2.7600 C   0  0  0  0  0  0  0  0  0  0  0  0
   15.8760   13.0520    2.7090 N   0  0  0  0  0  0  0  0  0  0  0  0
   16.0560   14.2010    3.3920 C   0  0  0  0  0  0  0  0  0  0  0  0
   20.8787   17.4007    5.5469 H   0  0  0  0  0  0  0  0  0  0  0  0
   19.9340   17.1973    7.0250 H   0  0  0  0  0  0  0  0  0  0  0  0
   21.7141   15.1494    5.5794 H   0  0  0  0  0  0  0  0  0  0  0  0
   21.7484   15.5593    7.2855 H   0  0  0  0  0  0  0  0  0  0  0  0
   20.4220   13.3661    6.5307 H   0  0  0  0  0  0  0  0  0  0  0  0
   19.6151   14.3945    7.6960 H   0  0  0  0  0  0  0  0  0  0  0  0
   18.0535   14.4830    6.0150 H   0  0  0  0  0  0  0  0  0  0  0  0
   19.1591   14.1115    4.8042 H   0  0  0  0  0  0  0  0  0  0  0  0
   21.0544   16.9895    1.4294 H   0  0  0  0  0  0  0  0  0  0  0  0
   19.3225   16.5802    1.1856 H   0  0  0  0  0  0  0  0  0  0  0  0
   19.8480   18.2979    1.1856 H   0  0  0  0  0  0  0  0  0  0  0  0
   19.9790   18.6301    4.7447 H   0  0  0  0  0  0  0  0  0  0  0  0
   20.9542   19.1111    3.3149 H   0  0  0  0  0  0  0  0  0  0  0  0
   19.1756   19.3629    3.3149 H   0  0  0  0  0  0  0  0  0  0  0  0
   17.8191   17.5110    6.4082 H   0  0  0  0  0  0  0  0  0  0  0  0
   17.4089   17.3346    4.6147 H   0  0  0  0  0  0  0  0  0  0  0  0
   16.9262   14.8289    5.7579 H   0  0  0  0  0  0  0  0  0  0  0  0
   16.2279   16.0459    6.9030 H   0  0  0  0  0  0  0  0  0  0  0  0
   14.4795   16.3371    5.5324 H   0  0  0  0  0  0  0  0  0  0  0  0
   15.6065   16.8774    4.2277 H   0  0  0  0  0  0  0  0  0  0  0  0
   12.9976   14.6649    4.7783 H   0  0  0  0  0  0  0  0  0  0  0  0
   12.6066   12.5492    3.4863 H   0  0  0  0  0  0  0  0  0  0  0  0
   14.4697   11.5687    2.1998 H   0  0  0  0  0  0  0  0  0  0  0  0
   17.0458   14.6786    3.3447 H   0  0  0  0  0  0  0  0  0  0  0  0
  2  1  1  0
  3  2  1  0
  4  3  1  0
  5  1  1  0
  5  4  1  0
  7  6  1  0
  1  8  1  6
  8  7  1  0
  9  8  2  0
 10  7  1  0
 11  1  1  0
 12 11  1  0
 13 12  1  0
 14 13  1  0
 15 14  2  0
 16 15  1  0
 17 16  2  0
 18 17  1  0
 19 18  2  0
 19 14  1  0
  2 20  1  0
  2 21  1  0
  3 22  1  0
  3 23  1  0
  4 24  1  0
  4 25  1  0
  5 26  1  0
  5 27  1  0
  6 28  1  0
  6 29  1  0
  6 30  1  0
 10 31  1  0
 10 32  1  0
 10 33  1  0
 11 34  1  0
 11 35  1  0
 12 36  1  0
 12 37  1  0
 13 38  1  0
 13 39  1  0
 15 40  1  0
 16 41  1  0
 17 42  1  0
 19 43  1  0
M  CHG  1   5   1
M  END
$$$$
=
     RDKit          3D

 35 35  0  0  0  0  0  0  0  0999 V2000
   15.5690   15.6100    4.6110 O   0  0  0  0  0  0  0  0  0  0  0  0
   14.8110   14.7340    3.7820 C   0  0  0  0  0  0  0  0  0  0  0  0
   13.5920   14.1520    4.5030 C   0  0  0  0  0  0  0  0  0  0  0  0
   12.9250   13.0470    3.7090 C   0  0  0  0  0  0  0  0  0  0  0  0
   13.9340   12.0010    3.3780 N   0  0  0  0  0  4  0  0  0  0  0  0
   15.0870   12.5190    2.5850 C   0  0  0  0  0  0  0  0  0  0  0  0
   15.7760   13.6160    3.3700 C   0  0  0  0  0  0  0  0  0  0  0  0
   16.9770   15.6310    4.3870 C   0  0  0  0  0  0  0  0  0  0  0  0
   18.8660   17.2850    4.3900 N   0  0  0  0  0  0  0  0  0  0  0  0
   17.7480   16.7870    5.0590 C   0  0  0  0  0  0  0  0  0  0  0  0
   17.3530   17.2710    6.1230 O   0  0  0  0  0  0  0  0  0  0  0  0
   19.6290   18.3430    5.0400 C   0  0  0  0  0  0  0  0  0  0  0  0
   19.6160   17.4860    2.0320 C   0  0  0  0  0  0  0  0  0  0  0  0
   19.5220   16.6070    3.2690 C   0  0  0  0  0  0  0  0  0  0  0  0
   14.4076   15.2797    2.9163 H   0  0  0  0  0  0  0  0  0  0  0  0
   13.9158   13.7447    5.4722 H   0  0  0  0  0  0  0  0  0  0  0  0
   12.8593   14.9624    4.6312 H   0  0  0  0  0  0  0  0  0  0  0  0
   12.1163   12.6015    4.3069 H   0  0  0  0  0  0  0  0  0  0  0  0
   12.5056   13.4617    2.7805 H   0  0  0  0  0  0  0  0  0  0  0  0
   14.2946   11.6052    4.2579 H   0  0  0  0  0  0  0  0  0  0  0  0
   13.4597   11.2939    2.7983 H   0  0  0  0  0  0  0  0  0  0  0  0
   15.7979   11.7021    2.3920 H   0  0  0  0  0  0  0  0  0  0  0  0
   14.7268   12.9200    1.6261 H   0  0  0  0  0  0  0  0  0  0  0  0
   16.2169   13.1776    4.2774 H   0  0  0  0  0  0  0  0  0  0  0  0
   16.5461   14.0595    2.7217 H   0  0  0  0  0  0  0  0  0  0  0  0
   17.3926   14.6846    4.7635 H   0  0  0  0  0  0  0  0  0  0  0  0
   17.1046   15.7771    3.3042 H   0  0  0  0  0  0  0  0  0  0  0  0
   19.5504   18.2340    6.1318 H   0  0  0  0  0  0  0  0  0  0  0  0
   20.6847   18.2714    4.7394 H   0  0  0  0  0  0  0  0  0  0  0  0
   19.2278   19.3221    4.7394 H   0  0  0  0  0  0  0  0  0  0  0  0
   19.7284   18.5370    2.3367 H   0  0  0  0  0  0  0  0  0  0  0  0
   20.4869   17.1830    1.4322 H   0  0  0  0  0  0  0  0  0  0  0  0
   18.7008   17.3740    1.4322 H   0  0  0  0  0  0  0  0  0  0  0  0
   18.9466   15.7040    3.0173 H   0  0  0  0  0  0  0  0  0  0  0  0
   20.5470   16.3590    3.5817 H   0  0  0  0  0  0  0  0  0  0  0  0
  2  1  1  0
  3  2  1  0
  4  3  1  0
  5  4  1  0
  6  5  1  0
  7  6  1  0
  7  2  1  0
  8  1  1  0
 10  8  1  0
 10  9  1  0
 11 10  2  0
 12  9  1  0
 14 13  1  0
 14  9  1  0
  2 15  1  0
  3 16  1  0
  3 17  1  0
  4 18  1  0
  4 19  1  0
  5 20  1  0
  5 21  1  0
  6 22  1  0
  6 23  1  0
  7 24  1  0
  7 25  1  0
  8 26  1  0
  8 27  1  0
 12 28  1  0
 12 29  1  0
 12 30  1  0
 13 31  1  0
 13 32  1  0
 13 33  1  0
 14 34  1  0
 14 35  1  0
M  CHG  1   5   1
M  END
$$$$
=
     RDKit          3D

 34 35  0  0  0  0  0  0  0  0999 V2000
   18.0960   16.1600    4.1590 C   0  0  0  0  0  0  0  0  0  0  0  0
   18.0860   16.6770    5.4630 C   0  0  0  0  0  0  0  0  0  0  0  0
   17.0010   16.4400    6.3020 C   0  0  0  0  0  0  0  0  0  0  0  0
   15.9230   15.6790    5.8510 C   0  0  0  0  0  0  0  0  0  0  0  0
   15.9230   15.1200    4.5620 C   0  0  0  0  0  0  0  0  0  0  0  0
   17.0100   15.3760    3.7180 C   0  0  0  0  0  0  0  0  0  0  0  0
   14.7900   14.3450    4.1540 N   0  0  0  0  0  0  0  0  0  0  0  0
   13.5530   14.7670    4.5310 N   0  0  0  0  0  0  0  0  0  0  0  0
   12.6910   13.9470    3.9310 C   0  0  0  0  0  0  0  0  0  0  0  0
   13.3560   12.9520    3.1970 C   0  0  0  0  0  0  0  0  0  0  0  0
   14.7040   13.1890    3.3840 C   0  0  0  0  0  0  0  0  0  0  0  0
   15.8310   12.3360    2.9320 C   0  0  0  0  0  0  0  0  0  0  0  0
   11.2310   14.1370    4.1070 C   0  0  0  0  0  0  0  0  0  0  0  0
   19.2310   16.4870    3.2290 C   0  0  0  0  0  0  0  0  0  0  0  0
   21.1300   18.0440    3.8090 C   0  0  0  0  0  0  0  0  0  0  0  0
   19.7150   17.8940    3.3770 N   0  0  0  0  0  4  0  0  0  0  0  0
   18.9383   17.2716    5.8236 H   0  0  0  0  0  0  0  0  0  0  0  0
   16.9939   16.8532    7.3214 H   0  0  0  0  0  0  0  0  0  0  0  0
   15.0606   15.5141    6.5137 H   0  0  0  0  0  0  0  0  0  0  0  0
   17.0171   14.9610    2.6993 H   0  0  0  0  0  0  0  0  0  0  0  0
   12.8989   12.1507    2.5979 H   0  0  0  0  0  0  0  0  0  0  0  0
   16.3614   11.9346    3.8081 H   0  0  0  0  0  0  0  0  0  0  0  0
   15.4415   11.5044    2.3264 H   0  0  0  0  0  0  0  0  0  0  0  0
   16.5256   12.9367    2.3264 H   0  0  0  0  0  0  0  0  0  0  0  0
   10.9920   14.1681    5.1803 H   0  0  0  0  0  0  0  0  0  0  0  0
   10.9248   15.0826    3.6356 H   0  0  0  0  0  0  0  0  0  0  0  0
   10.6930   13.3013    3.6356 H   0  0  0  0  0  0  0  0  0  0  0  0
   20.0667   15.8038    3.4408 H   0  0  0  0  0  0  0  0  0  0  0  0
   18.8597   16.3712    2.2001 H   0  0  0  0  0  0  0  0  0  0  0  0
   21.1793   18.0492    4.9079 H   0  0  0  0  0  0  0  0  0  0  0  0
   21.7234   17.2037    3.4193 H   0  0  0  0  0  0  0  0  0  0  0  0
   21.5340   18.9900    3.4193 H   0  0  0  0  0  0  0  0  0  0  0  0
   19.1192   18.3625    4.0745 H   0  0  0  0  0  0  0  0  0  0  0  0
   19.6615   18.3110    2.4367 H   0  0  0  0  0  0  0  0  0  0  0  0
  2  1  2  0
  3  2  1  0
  4  3  2  0
  5  4  1  0
  6  5  2  0
  6  1  1  0
  7  5  1  0
  8  7  1  0
  9  8  2  0
 10  9  1  0
 11 10  2  0
 11  7  1  0
 12 11  1  0
 13  9  1  0
 14  1  1  0
 16 15  1  0
 16 14  1  0
  2 17  1  0
  3 18  1  0
  4 19  1  0
  6 20  1  0
 10 21  1  0
 12 22  1  0
 12 23  1  0
 12 24  1  0
 13 25  1  0
 13 26  1  0
 13 27  1  0
 14 28  1  0
 14 29  1  0
 15 30  1  0
 15 31  1  0
 15 32  1  0
 16 33  1  0
 16 34  1  0
M  CHG  1  16   1
M  END
$$$$
=
     RDKit          3D

 38 39  0  0  0  0  0  0  0  0999 V2000
   17.5960   16.7450    5.4480 C   0  0  0  0  0  0  0  0  0  0  0  0
   18.4410   15.9460    4.4770 N   0  0  2  0  0  4  0  0  0  0  0  0
   17.7140   14.9480    3.5810 C   0  0  2  0  0  0  0  0  0  0  0  0
   16.3240   14.6340    4.1610 C   0  0  0  0  0  0  0  0  0  0  0  0
   15.4980   13.7220    3.2390 C   0  0  0  0  0  0  0  0  0  0  0  0
   16.3210   12.8250    2.3220 C   0  0  0  0  0  0  0  0  0  0  0  0
   17.5800   12.4430    3.0230 N   0  0  0  0  0  4  0  0  0  0  0  0
   18.4810   13.5900    3.3980 C   0  0  0  0  0  0  0  0  0  0  0  0
   19.7460   15.3820    5.1630 C   0  0  2  0  0  0  0  0  0  0  0  0
   19.4230   14.7730    6.5270 C   0  0  0  0  0  0  0  0  0  0  0  0
   20.8110   16.4590    5.1560 C   0  0  0  0  0  0  0  0  0  0  0  0
   21.7400   16.6140    6.1760 C   0  0  0  0  0  0  0  0  0  0  0  0
   22.6980   17.5600    6.1300 N   0  0  0  0  0  0  0  0  0  0  0  0
   22.7180   18.3480    5.0310 C   0  0  0  0  0  0  0  0  0  0  0  0
   21.8050   18.1920    4.0040 C   0  0  0  0  0  0  0  0  0  0  0  0
   20.8310   17.2430    4.0310 N   0  0  0  0  0  0  0  0  0  0  0  0
   17.8745   16.4817    6.4791 H   0  0  0  0  0  0  0  0  0  0  0  0
   17.7671   17.8193    5.2850 H   0  0  0  0  0  0  0  0  0  0  0  0
   16.5329   16.5141    5.2850 H   0  0  0  0  0  0  0  0  0  0  0  0
   18.7387   16.6403    3.7768 H   0  0  0  0  0  0  0  0  0  0  0  0
   17.6424   15.4303    2.5950 H   0  0  0  0  0  0  0  0  0  0  0  0
   16.4511   14.1332    5.1321 H   0  0  0  0  0  0  0  0  0  0  0  0
   15.7814   15.5850    4.2667 H   0  0  0  0  0  0  0  0  0  0  0  0
   14.8668   13.0790    3.8700 H   0  0  0  0  0  0  0  0  0  0  0  0
   14.9196   14.3884    2.5822 H   0  0  0  0  0  0  0  0  0  0  0  0
   15.7456   11.9201    2.0771 H   0  0  0  0  0  0  0  0  0  0  0  0
   16.5603   13.3619    1.3922 H   0  0  0  0  0  0  0  0  0  0  0  0
   17.3244   11.9436    3.8868 H   0  0  0  0  0  0  0  0  0  0  0  0
   18.1140   11.8674    2.3563 H   0  0  0  0  0  0  0  0  0  0  0  0
   18.9849   13.3433    4.3442 H   0  0  0  0  0  0  0  0  0  0  0  0
   19.1945   13.7274    2.5721 H   0  0  0  0  0  0  0  0  0  0  0  0
   20.1669   14.5403    4.5934 H   0  0  0  0  0  0  0  0  0  0  0  0
   19.7792   15.4446    7.3220 H   0  0  0  0  0  0  0  0  0  0  0  0
   18.3352   14.6389    6.6204 H   0  0  0  0  0  0  0  0  0  0  0  0
   19.9221   13.7972    6.6204 H   0  0  0  0  0  0  0  0  0  0  0  0
   21.6924   15.9445    7.0475 H   0  0  0  0  0  0  0  0  0  0  0  0
   23.4821   19.1353    4.9518 H   0  0  0  0  0  0  0  0  0  0  0  0
   21.8689   18.8604    3.1327 H   0  0  0  0  0  0  0  0  0  0  0  0
  2  1  1  0
  3  2  1  0
  4  3  1  0
  5  4  1  0
  6  5  1  0
  7  6  1  0
  8  7  1  0
  8  3  1  0
  9  2  1  0
 10  9  1  0
 11  9  1  0
 12 11  2  0
 13 12  1  0
 14 13  2  0
 15 14  1  0
 16 11  1  0
 16 15  2  0
  1 17  1  0
  1 18  1  0
  1 19  1  0
  2 20  1  6
  3 21  1  6
  4 22  1  0
  4 23  1  0
  5 24  1  0
  5 25  1  0
  6 26  1  0
  6 27  1  0
  7 28  1  0
  7 29  1  0
  8 30  1  0
  8 31  1  0
  9 32  1  6
 10 33  1  0
 10 34  1  0
 10 35  1  0
 12 36  1  0
 14 37  1  0
 15 38  1  0
M  CHG  2   2   1   7   1
M  END
$$$$
=
     RDKit          3D

 47 49  0  0  0  0  0  0  0  0999 V2000
   28.8250   27.3000   16.0930 N   0  0  2  0  0  4  0  0  0  0  0  0
   29.2890   28.2690   17.1890 C   0  0  0  0  0  0  0  0  0  0  0  0
   28.1950   28.5230   18.2630 C   0  0  0  0  0  0  0  0  0  0  0  0
   26.8080   28.4230   17.6940 N   0  0  0  0  0  4  0  0  0  0  0  0
   26.4570   27.0860   17.0030 C   0  0  2  0  0  0  0  0  0  0  0  0
   27.7500   26.3170   16.5880 C   0  0  0  0  0  0  0  0  0  0  0  0
   25.7520   27.4140   15.6920 C   0  0  0  0  0  0  0  0  0  0  0  0
   25.8370   28.5850   15.3130 O   0  0  0  0  0  0  0  0  0  0  0  0
   25.1190   26.3980   15.0330 N   0  0  0  0  0  0  0  0  0  0  0  0
   24.4580   26.6230   13.7810 C   0  0  0  0  0  0  0  0  0  0  0  0
   25.0660   26.1320   12.4970 C   0  0  0  0  0  0  0  0  0  0  0  0
   23.8280   25.4780   13.0360 C   0  0  0  0  0  0  0  0  0  0  0  0
   29.9830   26.5950   15.3790 C   0  0  0  0  0  0  0  0  0  0  0  0
   28.7900   23.9720   12.3010 C   0  0  0  0  0  0  0  0  0  0  0  0
   28.5510   25.2920   12.1530 N   0  0  0  0  0  0  0  0  0  0  0  0
   28.9030   26.1020   13.1610 C   0  0  0  0  0  0  0  0  0  0  0  0
   29.5400   25.6660   14.3040 C   0  0  0  0  0  0  0  0  0  0  0  0
   29.7460   24.3030   14.3670 C   0  0  0  0  0  0  0  0  0  0  0  0
   29.4030   23.4510   13.3850 N   0  0  0  0  0  0  0  0  0  0  0  0
   28.3140   23.0250   11.2160 C   0  0  0  0  0  0  0  0  0  0  0  0
   25.9570   22.9580   10.9310 C   0  0  0  0  0  0  0  0  0  0  0  0
   27.1830   23.5380   10.5050 O   0  0  0  0  0  0  0  0  0  0  0  0
   28.3737   27.8874   15.3773 H   0  0  0  0  0  0  0  0  0  0  0  0
   30.1757   27.8445   17.6826 H   0  0  0  0  0  0  0  0  0  0  0  0
   29.5150   29.2324   16.7087 H   0  0  0  0  0  0  0  0  0  0  0  0
   28.3043   27.7766   19.0636 H   0  0  0  0  0  0  0  0  0  0  0  0
   28.3297   29.5447   18.6476 H   0  0  0  0  0  0  0  0  0  0  0  0
   26.1397   28.5649   18.4648 H   0  0  0  0  0  0  0  0  0  0  0  0
   26.7569   29.1400   16.9563 H   0  0  0  0  0  0  0  0  0  0  0  0
   25.8507   26.4854   17.6970 H   0  0  0  0  0  0  0  0  0  0  0  0
   28.1372   25.7642   17.4567 H   0  0  0  0  0  0  0  0  0  0  0  0
   27.5036   25.6192   15.7741 H   0  0  0  0  0  0  0  0  0  0  0  0
   25.1168   25.4533   15.4433 H   0  0  0  0  0  0  0  0  0  0  0  0
   24.1084   27.5971   14.1536 H   0  0  0  0  0  0  0  0  0  0  0  0
   25.0098   26.7517   11.5899 H   0  0  0  0  0  0  0  0  0  0  0  0
   26.0627   25.7786   12.1944 H   0  0  0  0  0  0  0  0  0  0  0  0
   22.8645   25.6186   12.5243 H   0  0  0  0  0  0  0  0  0  0  0  0
   23.5417   24.4473   13.2921 H   0  0  0  0  0  0  0  0  0  0  0  0
   30.6337   27.3606   14.9313 H   0  0  0  0  0  0  0  0  0  0  0  0
   30.5080   25.9904   16.1331 H   0  0  0  0  0  0  0  0  0  0  0  0
   28.6711   27.1736   13.0719 H   0  0  0  0  0  0  0  0  0  0  0  0
   30.2172   23.8904   15.2713 H   0  0  0  0  0  0  0  0  0  0  0  0
   29.1358   22.8621   10.5032 H   0  0  0  0  0  0  0  0  0  0  0  0
   28.0094   22.0852   11.6996 H   0  0  0  0  0  0  0  0  0  0  0  0
   25.9217   22.9413   12.0303 H   0  0  0  0  0  0  0  0  0  0  0  0
   25.1162   23.5538   10.5462 H   0  0  0  0  0  0  0  0  0  0  0  0
   25.8844   21.9301   10.5462 H   0  0  0  0  0  0  0  0  0  0  0  0
  2  1  1  0
  3  2  1  0
  4  3  1  0
  5  4  1  0
  6  5  1  0
  6  1  1  0
  7  5  1  0
  8  7  2  0
  9  7  1  0
 10  9  1  0
 11 10  1  0
 12 11  1  0
 12 10  1  0
 13  1  1  0
 15 14  2  0
 16 15  1  0
 17 16  2  0
 17 13  1  0
 18 17  1  0
 19 18  2  0
 19 14  1  0
 20 14  1  0
 22 21  1  0
 22 20  1  0
  1 23  1  6
  2 24  1  0
  2 25  1  0
  3 26  1  0
  3 27  1  0
  4 28  1  0
  4 29  1  0
  5 30  1  1
  6 31  1  0
  6 32  1  0
  9 33  1  0
 10 34  1  0
 11 35  1  0
 11 36  1  0
 12 37  1  0
 12 38  1  0
 13 39  1  0
 13 40  1  0
 16 41  1  0
 18 42  1  0
 20 43  1  0
 20 44  1  0
 21 45  1  0
 21 46  1  0
 21 47  1  0
M  CHG  2   1   1   4   1
M  END
$$$$
=
     RDKit          3D

 16 15  0  0  0  0  0  0  0  0999 V2000
   20.9300   18.1880    5.0280 C   0  0  0  0  0  0  0  0  0  0  0  0
   20.6750   16.6780    4.8580 C   0  0  0  0  0  0  0  0  0  0  0  0
   19.1600   16.2610    3.9270 S   0  0  0  0  0  0  0  0  0  0  0  0
   19.5780   17.0000    2.4790 C   0  0  0  0  0  0  0  0  0  0  0  0
   19.6640   17.6870    1.5460 N   0  0  0  0  0  0  0  0  0  0  0  0
   22.2800   18.6840    4.4940 C   0  0  0  0  0  0  0  0  0  0  0  0
   23.3510   18.6050    5.5130 N   0  0  0  0  0  4  0  0  0  0  0  0
   20.1336   18.7300    4.4971 H   0  0  0  0  0  0  0  0  0  0  0  0
   20.9410   18.3768    6.1116 H   0  0  0  0  0  0  0  0  0  0  0  0
   21.5344   16.2429    4.3269 H   0  0  0  0  0  0  0  0  0  0  0  0
   20.5404   16.2693    5.8704 H   0  0  0  0  0  0  0  0  0  0  0  0
   22.5673   18.0663    3.6304 H   0  0  0  0  0  0  0  0  0  0  0  0
   22.1622   19.7404    4.2111 H   0  0  0  0  0  0  0  0  0  0  0  0
   22.9328   18.6358    6.4538 H   0  0  0  0  0  0  0  0  0  0  0  0
   23.8708   17.7234    5.3971 H   0  0  0  0  0  0  0  0  0  0  0  0
   23.9946   19.4008    5.3971 H   0  0  0  0  0  0  0  0  0  0  0  0
  2  1  1  0
  3  2  1  0
  4  3  1  0
  5  4  3  0
  6  1  1  0
  7  6  1  0
  1  8  1  0
  1  9  1  0
  2 10  1  0
  2 11  1  0
  6 12  1  0
  6 13  1  0
  7 14  1  0
  7 15  1  0
  7 16  1  0
M  CHG  1   7   1
M  END
$$$$
=
     RDKit          3D

 22 22  0  0  0  0  0  0  0  0999 V2000
   20.8640   17.9850    4.0520 C   0  0  0  0  0  0  0  0  0  0  0  0
   19.4010   17.5760    4.1210 C   0  0  2  0  0  0  0  0  0  0  0  0
   19.0100   17.5640    5.5030 O   0  0  0  0  0  0  0  0  0  0  0  0
   17.6190   17.2550    5.6790 C   0  0  0  0  0  0  0  0  0  0  0  0
   17.3100   15.8480    5.1630 C   0  0  2  0  0  0  0  0  0  0  0  0
   17.7580   15.7690    3.6780 N   0  0  0  0  0  4  0  0  0  0  0  0
   19.1930   16.1840    3.5020 C   0  0  0  0  0  0  0  0  0  0  0  0
   15.8200   15.5320    5.3130 C   0  0  0  0  0  0  0  0  0  0  0  0
   15.0940   16.5850    4.8760 F   0  0  0  0  0  0  0  0  0  0  0  0
   15.4560   14.4390    4.6260 F   0  0  0  0  0  0  0  0  0  0  0  0
   15.5220   15.3520    6.6190 F   0  0  0  0  0  0  0  0  0  0  0  0
   21.2621   18.0963    5.0714 H   0  0  0  0  0  0  0  0  0  0  0  0
   21.4359   17.2123    3.5174 H   0  0  0  0  0  0  0  0  0  0  0  0
   20.9523   18.9423    3.5174 H   0  0  0  0  0  0  0  0  0  0  0  0
   18.7872   18.2896    3.5518 H   0  0  0  0  0  0  0  0  0  0  0  0
   17.3689   17.3107    6.7487 H   0  0  0  0  0  0  0  0  0  0  0  0
   17.0198   17.9809    5.1097 H   0  0  0  0  0  0  0  0  0  0  0  0
   17.8572   15.0980    5.7530 H   0  0  0  0  0  0  0  0  0  0  0  0
   17.6490   14.7992    3.3485 H   0  0  0  0  0  0  0  0  0  0  0  0
   17.1698   16.4150    3.1324 H   0  0  0  0  0  0  0  0  0  0  0  0
   19.8494   15.4575    4.0033 H   0  0  0  0  0  0  0  0  0  0  0  0
   19.4371   16.2181    2.4300 H   0  0  0  0  0  0  0  0  0  0  0  0
  2  1  1  0
  3  2  1  0
  4  3  1  0
  5  4  1  0
  6  5  1  0
  7  6  1  0
  7  2  1  0
  8  5  1  0
  9  8  1  0
 10  8  1  0
 11  8  1  0
  1 12  1  0
  1 13  1  0
  1 14  1  0
  2 15  1  6
  4 16  1  0
  4 17  1  0
  5 18  1  1
  6 19  1  0
  6 20  1  0
  7 21  1  0
  7 22  1  0
M  CHG  1   6   1
M  END
$$$$
=
     RDKit          3D

 31 30  0  0  0  0  0  0  0  0999 V2000
   19.4210   15.4860    5.5150 C   0  0  0  0  0  0  0  0  0  0  0  0
   20.8440   15.4640    6.0730 C   0  0  0  0  0  0  0  0  0  0  0  0
   21.0250   15.4830    7.2900 O   0  0  0  0  0  0  0  0  0  0  0  0
   21.8820   15.3730    5.2000 N   0  0  0  0  0  0  0  0  0  0  0  0
   19.4110   15.2070    4.0110 C   0  0  0  0  0  0  0  0  0  0  0  0
   19.8620   16.0140    3.2040 O   0  0  0  0  0  0  0  0  0  0  0  0
   19.0260   13.9570    3.6060 N   0  0  0  0  0  0  0  0  0  0  0  0
   18.8010   16.8630    5.8160 N   0  0  0  0  0  4  0  0  0  0  0  0
   17.3220   16.9980    5.6600 C   0  0  0  0  0  0  0  0  0  0  0  0
   16.5990   15.8710    6.3890 C   0  0  0  0  0  0  0  0  0  0  0  0
   15.3920   15.3360    5.6150 C   0  0  0  0  0  0  0  0  0  0  0  0
   15.3160   13.8810    3.5600 C   0  0  0  0  0  0  0  0  0  0  0  0
   15.6170   15.2690    4.1050 C   0  0  0  0  0  0  0  0  0  0  0  0
   18.8282   14.6936    5.9953 H   0  0  0  0  0  0  0  0  0  0  0  0
   22.8502   15.3564    5.5510 H   0  0  0  0  0  0  0  0  0  0  0  0
   21.7003   15.3207    4.1875 H   0  0  0  0  0  0  0  0  0  0  0  0
   19.0043   13.7246    2.6028 H   0  0  0  0  0  0  0  0  0  0  0  0
   18.7581   13.2491    4.3045 H   0  0  0  0  0  0  0  0  0  0  0  0
   19.0319   17.0995    6.7915 H   0  0  0  0  0  0  0  0  0  0  0  0
   19.2000   17.4932    5.1057 H   0  0  0  0  0  0  0  0  0  0  0  0
   17.0012   17.9633    6.0787 H   0  0  0  0  0  0  0  0  0  0  0  0
   17.0726   16.9448    4.5900 H   0  0  0  0  0  0  0  0  0  0  0  0
   17.3077   15.0449    6.5479 H   0  0  0  0  0  0  0  0  0  0  0  0
   16.2255   16.2801    7.3394 H   0  0  0  0  0  0  0  0  0  0  0  0
   15.1665   14.3227    5.9787 H   0  0  0  0  0  0  0  0  0  0  0  0
   14.5610   16.0358    5.7875 H   0  0  0  0  0  0  0  0  0  0  0  0
   15.1647   13.1833    4.3969 H   0  0  0  0  0  0  0  0  0  0  0  0
   14.4051   13.9183    2.9445 H   0  0  0  0  0  0  0  0  0  0  0  0
   16.1606   13.5377    2.9445 H   0  0  0  0  0  0  0  0  0  0  0  0
   16.6660   15.5189    3.8880 H   0  0  0  0  0  0  0  0  0  0  0  0
   14.9369   15.9857    3.6215 H   0  0  0  0  0  0  0  0  0  0  0  0
  2  1  1  0
  3  2  2  0
  4  2  1  0
  5  1  1  0
  6  5  2  0
  7  5  1  0
  8  1  1  0
  9  8  1  0
 10  9  1  0
 11 10  1  0
 13 12  1  0
 13 11  1  0
  1 14  1  0
  4 15  1  0
  4 16  1  0
  7 17  1  0
  7 18  1  0
  8 19  1  0
  8 20  1  0
  9 21  1  0
  9 22  1  0
 10 23  1  0
 10 24  1  0
 11 25  1  0
 11 26  1  0
 12 27  1  0
 12 28  1  0
 12 29  1  0
 13 30  1  0
 13 31  1  0
M  CHG  1   8   1
M  END
$$$$
=
     RDKit          3D

 41 43  0  0  0  0  0  0  0  0999 V2000
   17.5530   13.4360    3.6060 C   0  0  1  0  0  0  0  0  0  0  0  0
   18.8860   14.2080    3.7560 C   0  0  0  0  0  0  0  0  0  0  0  0
   18.5030   15.5720    4.3070 N   0  0  1  0  0  4  0  0  0  0  0  0
   16.9830   15.6030    4.4280 C   0  0  0  0  0  0  0  0  0  0  0  0
   16.5290   14.5590    3.4030 C   0  0  2  0  0  0  0  0  0  0  0  0
   15.1020   14.1010    3.5450 C   0  0  0  0  0  0  0  0  0  0  0  0
   14.2190   14.8470    4.3440 C   0  0  0  0  0  0  0  0  0  0  0  0
   12.8810   14.4680    4.4700 C   0  0  0  0  0  0  0  0  0  0  0  0
   12.4080   13.3420    3.8040 C   0  0  0  0  0  0  0  0  0  0  0  0
   13.2720   12.5870    3.0170 C   0  0  0  0  0  0  0  0  0  0  0  0
   14.6120   12.9610    2.8870 C   0  0  0  0  0  0  0  0  0  0  0  0
   17.5180   12.4610    2.4730 N   0  0  0  0  0  4  0  0  0  0  0  0
   19.2360   15.9840    5.5740 C   0  0  0  0  0  0  0  0  0  0  0  0
   20.4400   16.8280    5.2750 C   0  0  0  0  0  0  0  0  0  0  0  0
   20.4730   17.6390    4.1290 C   0  0  0  0  0  0  0  0  0  0  0  0
   21.5750   18.4560    3.8740 C   0  0  0  0  0  0  0  0  0  0  0  0
   22.6520   18.4730    4.7570 C   0  0  0  0  0  0  0  0  0  0  0  0
   22.6340   17.6680    5.8930 C   0  0  0  0  0  0  0  0  0  0  0  0
   21.5350   16.8480    6.1530 C   0  0  0  0  0  0  0  0  0  0  0  0
   17.3654   12.7969    4.4814 H   0  0  0  0  0  0  0  0  0  0  0  0
   19.5568   13.6856    4.4539 H   0  0  0  0  0  0  0  0  0  0  0  0
   19.4215   14.2893    2.7986 H   0  0  0  0  0  0  0  0  0  0  0  0
   18.8177   16.2982    3.6478 H   0  0  0  0  0  0  0  0  0  0  0  0
   16.6623   15.3249    5.4428 H   0  0  0  0  0  0  0  0  0  0  0  0
   16.5560   16.6003    4.2461 H   0  0  0  0  0  0  0  0  0  0  0  0
   16.5104   14.9643    2.3806 H   0  0  0  0  0  0  0  0  0  0  0  0
   14.5853   15.7379    4.8752 H   0  0  0  0  0  0  0  0  0  0  0  0
   12.1994   15.0612    5.0973 H   0  0  0  0  0  0  0  0  0  0  0  0
   11.3521   13.0489    3.8995 H   0  0  0  0  0  0  0  0  0  0  0  0
   12.8991   11.6931    2.4956 H   0  0  0  0  0  0  0  0  0  0  0  0
   15.2887   12.3576    2.2642 H   0  0  0  0  0  0  0  0  0  0  0  0
   17.4836   11.5017    2.8465 H   0  0  0  0  0  0  0  0  0  0  0  0
   16.6827   12.6350    1.8960 H   0  0  0  0  0  0  0  0  0  0  0  0
   18.3636   12.5746    1.8960 H   0  0  0  0  0  0  0  0  0  0  0  0
   18.5483   16.5589    6.2116 H   0  0  0  0  0  0  0  0  0  0  0  0
   19.5781   15.0703    6.0821 H   0  0  0  0  0  0  0  0  0  0  0  0
   19.6251   17.6301    3.4283 H   0  0  0  0  0  0  0  0  0  0  0  0
   21.5932   19.0879    2.9738 H   0  0  0  0  0  0  0  0  0  0  0  0
   23.5170   19.1225    4.5569 H   0  0  0  0  0  0  0  0  0  0  0  0
   23.4876   17.6784    6.5868 H   0  0  0  0  0  0  0  0  0  0  0  0
   21.5269   16.2135    7.0515 H   0  0  0  0  0  0  0  0  0  0  0  0
  2  1  1  0
  3  2  1  0
  4  3  1  0
  5  4  1  0
  5  1  1  0
  6  5  1  0
  7  6  2  0
  8  7  1  0
  9  8  2  0
 10  9  1  0
 11 10  2  0
 11  6  1  0
 12  1  1  0
 13  3  1  0
 14 13  1  0
 15 14  2  0
 16 15  1  0
 17 16  2  0
 18 17  1  0
 19 14  1  0
 19 18  2  0
  1 20  1  1
  2 21  1  0
  2 22  1  0
  3 23  1  6
  4 24  1  0
  4 25  1  0
  5 26  1  6
  7 27  1  0
  8 28  1  0
  9 29  1  0
 10 30  1  0
 11 31  1  0
 12 32  1  0
 12 33  1  0
 12 34  1  0
 13 35  1  0
 13 36  1  0
 15 37  1  0
 16 38  1  0
 17 39  1  0
 18 40  1  0
 19 41  1  0
M  CHG  2   3   1  12   1
M  END
$$$$
=
     RDKit          3D

 28 30  0  0  0  0  0  0  0  0999 V2000
   17.3300   14.9670    3.9830 C   0  0  0  0  0  0  0  0  0  0  0  0
   18.4070   14.2390    3.5120 C   0  0  0  0  0  0  0  0  0  0  0  0
   19.6520   14.8160    3.6600 N   0  0  0  0  0  0  0  0  0  0  0  0
   19.5460   15.9920    4.2510 C   0  0  0  0  0  0  0  0  0  0  0  0
   17.9290   16.4360    4.6460 S   0  0  0  0  0  0  0  0  0  0  0  0
   13.9030   11.9560    2.8170 N   0  0  0  0  0  0  0  0  0  0  0  0
   14.2610   13.1560    3.3940 C   0  0  0  0  0  0  0  0  0  0  0  0
   13.2800   13.9370    3.8500 N   0  0  0  0  0  0  0  0  0  0  0  0
   13.6500   15.1070    4.3980 C   0  0  0  0  0  0  0  0  0  0  0  0
   14.9570   15.5200    4.4870 C   0  0  0  0  0  0  0  0  0  0  0  0
   15.8970   14.6520    3.9710 C   0  0  0  0  0  0  0  0  0  0  0  0
   15.5560   13.4710    3.4150 N   0  0  0  0  0  0  0  0  0  0  0  0
   20.7010   16.8650    4.5580 C   0  0  0  0  0  0  0  0  0  0  0  0
   21.4810   16.5790    5.6930 C   0  0  0  0  0  0  0  0  0  0  0  0
   22.5850   17.3670    6.0340 C   0  0  0  0  0  0  0  0  0  0  0  0
   22.9310   18.4580    5.2450 C   0  0  0  0  0  0  0  0  0  0  0  0
   22.1740   18.7620    4.1160 C   0  0  0  0  0  0  0  0  0  0  0  0
   21.0690   17.9730    3.7750 C   0  0  0  0  0  0  0  0  0  0  0  0
   18.2783   13.2519    3.0440 H   0  0  0  0  0  0  0  0  0  0  0  0
   14.6291   11.3231    2.4521 H   0  0  0  0  0  0  0  0  0  0  0  0
   12.9095   11.6924    2.7509 H   0  0  0  0  0  0  0  0  0  0  0  0
   12.8658   15.7679    4.7957 H   0  0  0  0  0  0  0  0  0  0  0  0
   15.2365   16.4821    4.9411 H   0  0  0  0  0  0  0  0  0  0  0  0
   21.2174   15.7182    6.3251 H   0  0  0  0  0  0  0  0  0  0  0  0
   23.1797   17.1234    6.9268 H   0  0  0  0  0  0  0  0  0  0  0  0
   23.7992   19.0788    5.5112 H   0  0  0  0  0  0  0  0  0  0  0  0
   22.4454   19.6250    3.4902 H   0  0  0  0  0  0  0  0  0  0  0  0
   20.4797   18.2239    2.8807 H   0  0  0  0  0  0  0  0  0  0  0  0
  2  1  2  0
  3  2  1  0
  4  3  2  0
  5  4  1  0
  5  1  1  0
  7  6  1  0
  8  7  2  0
  9  8  1  0
 10  9  2  0
 11 10  1  0
 11  1  1  0
 12 11  2  0
 12  7  1  0
 13  4  1  0
 14 13  2  0
 15 14  1  0
 16 15  2  0
 17 16  1  0
 18 13  1  0
 18 17  2  0
  2 19  1  0
  6 20  1  0
  6 21  1  0
  9 22  1  0
 10 23  1  0
 14 24  1  0
 15 25  1  0
 16 26  1  0
 17 27  1  0
 18 28  1  0
M  END
$$$$
=
     RDKit          3D

 25 25  0  0  0  0  0  0  0  0999 V2000
   19.5900   17.1440    2.4850 C   0  0  0  0  0  0  0  0  0  0  0  0
   19.6340   16.7100    3.9370 C   0  0  1  0  0  0  0  0  0  0  0  0
   18.3650   16.9580    4.5650 O   0  0  0  0  0  0  0  0  0  0  0  0
   18.3960   16.2700    5.8360 C   0  0  2  0  0  0  0  0  0  0  0  0
   19.3700   15.0870    5.6550 C   0  0  1  0  0  0  0  0  0  0  0  0
   19.8140   15.2150    4.1960 C   0  0  1  0  0  0  0  0  0  0  0  0
   20.5550   15.2000    6.6150 C   0  0  0  0  0  0  0  0  0  0  0  0
   16.9830   15.8350    6.1830 C   0  0  0  0  0  0  0  0  0  0  0  0
   18.8440   14.4390    3.3510 N   0  0  0  0  0  4  0  0  0  0  0  0
   19.4792   18.2371    2.4322 H   0  0  0  0  0  0  0  0  0  0  0  0
   20.5230   16.8455    1.9846 H   0  0  0  0  0  0  0  0  0  0  0  0
   18.7359   16.6643    1.9846 H   0  0  0  0  0  0  0  0  0  0  0  0
   20.4972   17.2749    4.3189 H   0  0  0  0  0  0  0  0  0  0  0  0
   18.7443   16.8969    6.6701 H   0  0  0  0  0  0  0  0  0  0  0  0
   18.9121   14.1113    5.8749 H   0  0  0  0  0  0  0  0  0  0  0  0
   20.8296   14.8503    3.9826 H   0  0  0  0  0  0  0  0  0  0  0  0
   20.1910   15.1653    7.6525 H   0  0  0  0  0  0  0  0  0  0  0  0
   21.2484   14.3639    6.4415 H   0  0  0  0  0  0  0  0  0  0  0  0
   21.0779   16.1521    6.4415 H   0  0  0  0  0  0  0  0  0  0  0  0
   16.8683   15.7997    7.2764 H   0  0  0  0  0  0  0  0  0  0  0  0
   16.2643   16.5535    5.7620 H   0  0  0  0  0  0  0  0  0  0  0  0
   16.7929   14.8367    5.7620 H   0  0  0  0  0  0  0  0  0  0  0  0
   18.1958   13.9205    3.9608 H   0  0  0  0  0  0  0  0  0  0  0  0
   18.3102   15.0890    2.7564 H   0  0  0  0  0  0  0  0  0  0  0  0
   19.3609   13.7756    2.7564 H   0  0  0  0  0  0  0  0  0  0  0  0
  2  1  1  0
  3  2  1  0
  4  3  1  0
  5  4  1  0
  6  5  1  0
  6  2  1  0
  7  5  1  0
  8  4  1  0
  9  6  1  0
  1 10  1  0
  1 11  1  0
  1 12  1  0
  2 13  1  1
  4 14  1  1
  5 15  1  6
  6 16  1  1
  7 17  1  0
  7 18  1  0
  7 19  1  0
  8 20  1  0
  8 21  1  0
  8 22  1  0
  9 23  1  0
  9 24  1  0
  9 25  1  0
M  CHG  1   9   1
M  END
$$$$
=
     RDKit          3D

 41 41  0  0  0  0  0  0  0  0999 V2000
   16.8820   13.8280    3.1930 C   0  0  0  0  0  0  0  0  0  0  0  0
   15.3430   13.7180    3.2830 C   0  0  2  0  0  0  0  0  0  0  0  0
   14.8060   14.4500    4.5240 C   0  0  0  0  0  0  0  0  0  0  0  0
   13.3980   15.0110    4.3100 C   0  0  0  0  0  0  0  0  0  0  0  0
   12.2790   13.9780    4.2050 C   0  0  0  0  0  0  0  0  0  0  0  0
   12.4910   12.8900    3.1620 C   0  0  0  0  0  0  0  0  0  0  0  0
   13.5560   11.9490    3.6210 N   0  0  0  0  0  4  0  0  0  0  0  0
   14.9610   12.2380    3.2170 C   0  0  0  0  0  0  0  0  0  0  0  0
   19.5940   14.5220    3.4980 O   0  0  0  0  0  0  0  0  0  0  0  0
   18.7340   15.1840    4.0580 C   0  0  0  0  0  0  0  0  0  0  0  0
   17.3940   14.9740    3.9040 N   0  0  0  0  0  0  0  0  0  0  0  0
   18.9230   16.2140    4.9070 O   0  0  0  0  0  0  0  0  0  0  0  0
   19.7480   17.3480    4.5300 C   0  0  0  0  0  0  0  0  0  0  0  0
   19.4660   17.7840    3.0890 C   0  0  0  0  0  0  0  0  0  0  0  0
   21.2340   17.0530    4.7600 C   0  0  0  0  0  0  0  0  0  0  0  0
   19.3180   18.4770    5.4790 C   0  0  0  0  0  0  0  0  0  0  0  0
   17.3269   12.9182    3.6224 H   0  0  0  0  0  0  0  0  0  0  0  0
   17.1484   13.9450    2.1322 H   0  0  0  0  0  0  0  0  0  0  0  0
   14.8644   14.2247    2.4319 H   0  0  0  0  0  0  0  0  0  0  0  0
   14.7799   13.7434    5.3666 H   0  0  0  0  0  0  0  0  0  0  0  0
   15.4763   15.2980    4.7280 H   0  0  0  0  0  0  0  0  0  0  0  0
   13.1667   15.6739    5.1568 H   0  0  0  0  0  0  0  0  0  0  0  0
   13.4251   15.5214    3.3359 H   0  0  0  0  0  0  0  0  0  0  0  0
   12.1728   13.4917    5.1860 H   0  0  0  0  0  0  0  0  0  0  0  0
   11.3835   14.5323    3.8873 H   0  0  0  0  0  0  0  0  0  0  0  0
   11.5520   12.3358    3.0166 H   0  0  0  0  0  0  0  0  0  0  0  0
   12.7997   13.3524    2.2128 H   0  0  0  0  0  0  0  0  0  0  0  0
   13.5295   11.9339    4.6505 H   0  0  0  0  0  0  0  0  0  0  0  0
   13.3313   11.0573    3.1570 H   0  0  0  0  0  0  0  0  0  0  0  0
   15.6333   11.6785    3.8841 H   0  0  0  0  0  0  0  0  0  0  0  0
   15.0547   11.9350    2.1637 H   0  0  0  0  0  0  0  0  0  0  0  0
   16.7309   15.6518    4.3061 H   0  0  0  0  0  0  0  0  0  0  0  0
   18.8686   18.7076    3.0956 H   0  0  0  0  0  0  0  0  0  0  0  0
   20.4176   17.9665    2.5683 H   0  0  0  0  0  0  0  0  0  0  0  0
   18.9093   16.9910    2.5683 H   0  0  0  0  0  0  0  0  0  0  0  0
   21.4369   17.0127    5.8404 H   0  0  0  0  0  0  0  0  0  0  0  0
   21.4910   16.0863    4.3024 H   0  0  0  0  0  0  0  0  0  0  0  0
   21.8408   17.8482    4.3024 H   0  0  0  0  0  0  0  0  0  0  0  0
   19.4434   18.1478    6.5211 H   0  0  0  0  0  0  0  0  0  0  0  0
   19.9407   19.3655    5.2977 H   0  0  0  0  0  0  0  0  0  0  0  0
   18.2620   18.7261    5.2977 H   0  0  0  0  0  0  0  0  0  0  0  0
  2  1  1  0
  3  2  1  0
  4  3  1  0
  5  4  1  0
  6  5  1  0
  7  6  1  0
  8  7  1  0
  8  2  1  0
 10  9  2  0
 11 10  1  0
 11  1  1  0
 12 10  1  0
 13 12  1  0
 14 13  1  0
 15 13  1  0
 16 13  1  0
  1 17  1  0
  1 18  1  0
  2 19  1  6
  3 20  1  0
  3 21  1  0
  4 22  1  0
  4 23  1  0
  5 24  1  0
  5 25  1  0
  6 26  1  0
  6 27  1  0
  7 28  1  0
  7 29  1  0
  8 30  1  0
  8 31  1  0
 11 32  1  0
 14 33  1  0
 14 34  1  0
 14 35  1  0
 15 36  1  0
 15 37  1  0
 15 38  1  0
 16 39  1  0
 16 40  1  0
 16 41  1  0
M  CHG  1   7   1
M  END
$$$$
=
     RDKit          3D

 45 47  0  0  0  0  0  0  0  0999 V2000
   15.9530   14.4470    3.8330 C   0  0  0  0  0  0  0  0  0  0  0  0
   17.3280   14.3130    3.6240 C   0  0  0  0  0  0  0  0  0  0  0  0
   17.8300   13.1660    3.0140 C   0  0  0  0  0  0  0  0  0  0  0  0
   16.9570   12.1640    2.6010 C   0  0  0  0  0  0  0  0  0  0  0  0
   15.5790   12.3120    2.7890 C   0  0  0  0  0  0  0  0  0  0  0  0
   15.0430   13.4600    3.4000 C   0  0  0  0  0  0  0  0  0  0  0  0
   13.5810   13.5920    3.5570 C   0  0  0  0  0  0  0  0  0  0  0  0
   12.6970   12.7650    2.8430 C   0  0  0  0  0  0  0  0  0  0  0  0
   11.3140   12.8970    2.9860 C   0  0  0  0  0  0  0  0  0  0  0  0
   10.7890   13.8560    3.8490 C   0  0  0  0  0  0  0  0  0  0  0  0
   11.6470   14.6810    4.5700 C   0  0  0  0  0  0  0  0  0  0  0  0
   13.0310   14.5500    4.4260 C   0  0  0  0  0  0  0  0  0  0  0  0
   15.5340   15.6150    4.4240 O   0  0  0  0  0  0  0  0  0  0  0  0
   16.0770   15.7470    5.7410 C   0  0  0  0  0  0  0  0  0  0  0  0
   16.9360   17.0130    5.7530 C   0  0  0  0  0  0  0  0  0  0  0  0
   21.0550   15.5890    5.2050 C   0  0  0  0  0  0  0  0  0  0  0  0
   20.3180   15.1970    6.4760 C   0  0  0  0  0  0  0  0  0  0  0  0
   18.8060   15.3700    6.3260 C   0  0  0  0  0  0  0  0  0  0  0  0
   18.4530   16.7990    5.8780 C   0  0  1  0  0  0  0  0  0  0  0  0
   19.2030   17.1660    4.5970 C   0  0  0  0  0  0  0  0  0  0  0  0
   20.6700   16.9800    4.8210 N   0  0  0  0  0  4  0  0  0  0  0  0
   18.0135   15.1128    3.9410 H   0  0  0  0  0  0  0  0  0  0  0  0
   18.9131   13.0525    2.8591 H   0  0  0  0  0  0  0  0  0  0  0  0
   17.3515   11.2538    2.1258 H   0  0  0  0  0  0  0  0  0  0  0  0
   14.9005   11.5144    2.4522 H   0  0  0  0  0  0  0  0  0  0  0  0
   13.1006   12.0020    2.1611 H   0  0  0  0  0  0  0  0  0  0  0  0
   10.6382   12.2425    2.4161 H   0  0  0  0  0  0  0  0  0  0  0  0
    9.6997   13.9609    3.9603 H   0  0  0  0  0  0  0  0  0  0  0  0
   11.2353   15.4374    5.2543 H   0  0  0  0  0  0  0  0  0  0  0  0
   13.7000   15.2067    5.0015 H   0  0  0  0  0  0  0  0  0  0  0  0
   15.2639   15.8366    6.4764 H   0  0  0  0  0  0  0  0  0  0  0  0
   16.6790   14.8649    6.0047 H   0  0  0  0  0  0  0  0  0  0  0  0
   16.7492   17.5550    4.8142 H   0  0  0  0  0  0  0  0  0  0  0  0
   16.6394   17.5631    6.6582 H   0  0  0  0  0  0  0  0  0  0  0  0
   22.1400   15.5430    5.3802 H   0  0  0  0  0  0  0  0  0  0  0  0
   20.7872   14.8952    4.3945 H   0  0  0  0  0  0  0  0  0  0  0  0
   20.5358   14.1433    6.7044 H   0  0  0  0  0  0  0  0  0  0  0  0
   20.6605   15.8541    7.2890 H   0  0  0  0  0  0  0  0  0  0  0  0
   18.4356   14.6565    5.5752 H   0  0  0  0  0  0  0  0  0  0  0  0
   18.3348   15.1838    7.3024 H   0  0  0  0  0  0  0  0  0  0  0  0
   18.7882   17.4890    6.6664 H   0  0  0  0  0  0  0  0  0  0  0  0
   18.8700   16.5149    3.7753 H   0  0  0  0  0  0  0  0  0  0  0  0
   18.9974   18.2140    4.3334 H   0  0  0  0  0  0  0  0  0  0  0  0
   20.9659   17.6174    5.5740 H   0  0  0  0  0  0  0  0  0  0  0  0
   21.1359   17.1812    3.9247 H   0  0  0  0  0  0  0  0  0  0  0  0
  2  1  2  0
  3  2  1  0
  4  3  2  0
  5  4  1  0
  6  5  2  0
  6  1  1  0
  7  6  1  0
  8  7  2  0
  9  8  1  0
 10  9  2  0
 11 10  1  0
 12 11  2  0
 12  7  1  0
 13  1  1  0
 14 13  1  0
 15 14  1  0
 17 16  1  0
 18 17  1  0
 19 18  1  0
 19 15  1  0
 20 19  1  0
 21 16  1  0
 21 20  1  0
  2 22  1  0
  3 23  1  0
  4 24  1  0
  5 25  1  0
  8 26  1  0
  9 27  1  0
 10 28  1  0
 11 29  1  0
 12 30  1  0
 14 31  1  0
 14 32  1  0
 15 33  1  0
 15 34  1  0
 16 35  1  0
 16 36  1  0
 17 37  1  0
 17 38  1  0
 18 39  1  0
 18 40  1  0
 19 41  1  1
 20 42  1  0
 20 43  1  0
 21 44  1  0
 21 45  1  0
M  CHG  1  21   1
M  END
$$$$
=
     RDKit          3D

 51 52  0  0  0  0  0  0  0  0999 V2000
   20.7030   17.1790    5.2020 N   0  0  2  0  0  4  0  0  0  0  0  0
   21.4040   16.0050    5.8660 C   0  0  0  0  0  0  0  0  0  0  0  0
   20.4300   15.2510    6.7540 C   0  0  0  0  0  0  0  0  0  0  0  0
   19.2800   14.6360    5.9540 C   0  0  0  0  0  0  0  0  0  0  0  0
   18.9730   15.4040    4.6590 C   0  0  2  0  0  0  0  0  0  0  0  0
   19.2290   16.8950    4.8600 C   0  0  0  0  0  0  0  0  0  0  0  0
   21.4390   17.7520    3.9940 C   0  0  0  0  0  0  0  0  0  0  0  0
   22.2860   19.0090    4.3170 C   0  0  0  0  0  0  0  0  0  0  0  0
   23.4180   18.7060    5.2440 N   0  0  0  0  0  4  0  0  0  0  0  0
   17.5220   15.1320    4.2020 C   0  0  0  0  0  0  0  0  0  0  0  0
   17.4000   13.8650    3.4790 N   0  0  0  0  0  0  0  0  0  0  0  0
   16.2140   13.4150    2.9140 C   0  0  0  0  0  0  0  0  0  0  0  0
   16.1310   12.4320    2.1920 O   0  0  0  0  0  0  0  0  0  0  0  0
   18.5940   13.0390    3.3660 C   0  0  0  0  0  0  0  0  0  0  0  0
   15.1780   14.2540    3.1740 O   0  0  0  0  0  0  0  0  0  0  0  0
   14.3780   13.9360    4.3240 C   0  0  0  0  0  0  0  0  0  0  0  0
   12.9830   13.6060    3.8460 C   0  0  0  0  0  0  0  0  0  0  0  0
   12.7730   12.6020    2.8890 C   0  0  0  0  0  0  0  0  0  0  0  0
   11.4840   12.3170    2.4330 C   0  0  0  0  0  0  0  0  0  0  0  0
   10.3930   13.0280    2.9310 C   0  0  0  0  0  0  0  0  0  0  0  0
   10.5880   14.0170    3.8940 C   0  0  0  0  0  0  0  0  0  0  0  0
   11.8770   14.2980    4.3580 C   0  0  0  0  0  0  0  0  0  0  0  0
   20.7206   17.9101    5.9274 H   0  0  0  0  0  0  0  0  0  0  0  0
   21.7905   15.3264    5.0913 H   0  0  0  0  0  0  0  0  0  0  0  0
   22.2345   16.3821    6.4809 H   0  0  0  0  0  0  0  0  0  0  0  0
   20.9722   14.4461    7.2718 H   0  0  0  0  0  0  0  0  0  0  0  0
   20.0000   15.9670    7.4698 H   0  0  0  0  0  0  0  0  0  0  0  0
   19.5480   13.6015    5.6932 H   0  0  0  0  0  0  0  0  0  0  0  0
   18.3796   14.6797    6.5844 H   0  0  0  0  0  0  0  0  0  0  0  0
   19.6438   15.0504    3.8621 H   0  0  0  0  0  0  0  0  0  0  0  0
   18.9685   17.4293    3.9344 H   0  0  0  0  0  0  0  0  0  0  0  0
   18.6095   17.2388    5.7015 H   0  0  0  0  0  0  0  0  0  0  0  0
   22.1085   16.9756    3.5953 H   0  0  0  0  0  0  0  0  0  0  0  0
   20.6723   18.0598    3.2677 H   0  0  0  0  0  0  0  0  0  0  0  0
   22.6951   19.4109    3.3783 H   0  0  0  0  0  0  0  0  0  0  0  0
   21.6299   19.7389    4.8137 H   0  0  0  0  0  0  0  0  0  0  0  0
   23.0961   18.7922    6.2186 H   0  0  0  0  0  0  0  0  0  0  0  0
   23.7517   17.7461    5.0762 H   0  0  0  0  0  0  0  0  0  0  0  0
   24.1866   19.3709    5.0762 H   0  0  0  0  0  0  0  0  0  0  0  0
   16.8715   15.0985    5.0884 H   0  0  0  0  0  0  0  0  0  0  0  0
   17.2250   15.9414    3.5189 H   0  0  0  0  0  0  0  0  0  0  0  0
   18.9608   12.7852    4.3715 H   0  0  0  0  0  0  0  0  0  0  0  0
   18.3506   12.1153    2.8206 H   0  0  0  0  0  0  0  0  0  0  0  0
   19.3725   13.5925    2.8206 H   0  0  0  0  0  0  0  0  0  0  0  0
   14.8071   13.0700    4.8493 H   0  0  0  0  0  0  0  0  0  0  0  0
   14.3521   14.7884    5.0188 H   0  0  0  0  0  0  0  0  0  0  0  0
   13.6295   12.0353    2.4950 H   0  0  0  0  0  0  0  0  0  0  0  0
   11.3293   11.5304    1.6798 H   0  0  0  0  0  0  0  0  0  0  0  0
    9.3793   12.8088    2.5644 H   0  0  0  0  0  0  0  0  0  0  0  0
    9.7274   14.5767    4.2891 H   0  0  0  0  0  0  0  0  0  0  0  0
   12.0238   15.0675    5.1302 H   0  0  0  0  0  0  0  0  0  0  0  0
  2  1  1  0
  3  2  1  0
  4  3  1  0
  5  4  1  0
  6  5  1  0
  6  1  1  0
  7  1  1  0
  8  7  1  0
  9  8  1  0
 10  5  1  0
 11 10  1  0
 12 11  1  0
 13 12  2  0
 14 11  1  0
 15 12  1  0
 16 15  1  0
 17 16  1  0
 18 17  2  0
 19 18  1  0
 20 19  2  0
 21 20  1  0
 22 21  2  0
 22 17  1  0
  1 23  1  1
  2 24  1  0
  2 25  1  0
  3 26  1  0
  3 27  1  0
  4 28  1  0
  4 29  1  0
  5 30  1  6
  6 31  1  0
  6 32  1  0
  7 33  1  0
  7 34  1  0
  8 35  1  0
  8 36  1  0
  9 37  1  0
  9 38  1  0
  9 39  1  0
 10 40  1  0
 10 41  1  0
 14 42  1  0
 14 43  1  0
 14 44  1  0
 16 45  1  0
 16 46  1  0
 18 47  1  0
 19 48  1  0
 20 49  1  0
 21 50  1  0
 22 51  1  0
M  CHG  2   1   1   9   1
M  END
$$$$
=
     RDKit          3D

 28 29  0  0  0  0  0  0  0  0999 V2000
   21.1750   16.4340    5.2470 C   0  0  0  0  0  0  0  0  0  0  0  0
   21.0980   15.7570    6.4420 C   0  0  0  0  0  0  0  0  0  0  0  0
   19.9600   14.9120    6.3450 C   0  0  0  0  0  0  0  0  0  0  0  0
   19.4150   15.1180    5.0920 C   0  0  0  0  0  0  0  0  0  0  0  0
   20.1380   16.0690    4.4440 O   0  0  0  0  0  0  0  0  0  0  0  0
   18.2690   14.5820    4.3630 C   0  0  0  0  0  0  0  0  0  0  0  0
   18.4760   13.4680    3.5290 C   0  0  0  0  0  0  0  0  0  0  0  0
   17.4250   12.8920    2.8130 C   0  0  0  0  0  0  0  0  0  0  0  0
   16.1450   13.4220    2.9160 C   0  0  0  0  0  0  0  0  0  0  0  0
   15.9170   14.5300    3.7280 C   0  0  0  0  0  0  0  0  0  0  0  0
   16.9670   15.1320    4.4540 C   0  0  0  0  0  0  0  0  0  0  0  0
   16.6540   16.3490    5.2910 C   0  0  0  0  0  0  0  0  0  0  0  0
   17.5330   17.3780    5.1260 F   0  0  0  0  0  0  0  0  0  0  0  0
   15.4210   16.8980    5.0290 F   0  0  0  0  0  0  0  0  0  0  0  0
   16.6390   16.1120    6.6380 F   0  0  0  0  0  0  0  0  0  0  0  0
   22.1060   17.4180    4.6540 C   0  0  0  0  0  0  0  0  0  0  0  0
   22.6210   18.3400    5.6970 N   0  0  0  0  0  4  0  0  0  0  0  0
   21.7801   15.8509    7.2999 H   0  0  0  0  0  0  0  0  0  0  0  0
   19.5849   14.2258    7.1186 H   0  0  0  0  0  0  0  0  0  0  0  0
   19.4863   13.0423    3.4393 H   0  0  0  0  0  0  0  0  0  0  0  0
   17.6101   12.0201    2.1684 H   0  0  0  0  0  0  0  0  0  0  0  0
   15.3135   12.9674    2.3574 H   0  0  0  0  0  0  0  0  0  0  0  0
   14.9005   14.9434    3.8050 H   0  0  0  0  0  0  0  0  0  0  0  0
   22.9506   16.8851    4.1928 H   0  0  0  0  0  0  0  0  0  0  0  0
   21.5678   18.0045    3.8948 H   0  0  0  0  0  0  0  0  0  0  0  0
   22.4074   17.9575    6.6292 H   0  0  0  0  0  0  0  0  0  0  0  0
   23.6407   18.4410    5.5928 H   0  0  0  0  0  0  0  0  0  0  0  0
   22.1723   19.2612    5.5928 H   0  0  0  0  0  0  0  0  0  0  0  0
  2  1  2  0
  3  2  1  0
  4  3  2  0
  5  4  1  0
  5  1  1  0
  6  4  1  0
  7  6  2  0
  8  7  1  0
  9  8  2  0
 10  9  1  0
 11 10  2  0
 11  6  1  0
 12 11  1  0
 13 12  1  0
 14 12  1  0
 15 12  1  0
 16  1  1  0
 17 16  1  0
  2 18  1  0
  3 19  1  0
  7 20  1  0
  8 21  1  0
  9 22  1  0
 10 23  1  0
 16 24  1  0
 16 25  1  0
 17 26  1  0
 17 27  1  0
 17 28  1  0
M  CHG  1  17   1
M  END
$$$$
=
     RDKit          3D

 23 23  0  0  0  0  0  0  0  0999 V2000
   22.0580   18.6440    4.4000 C   0  0  0  0  0  0  0  0  0  0  0  0
   21.2210   17.5430    5.0620 C   0  0  2  0  0  0  0  0  0  0  0  0
   22.1250   16.6100    5.8850 C   0  0  0  0  0  0  0  0  0  0  0  0
   21.4180   16.0300    6.9800 O   0  0  0  0  0  0  0  0  0  0  0  0
   20.5620   14.9400    6.6660 C   0  0  0  0  0  0  0  0  0  0  0  0
   19.3680   15.3180    5.7870 C   0  0  0  0  0  0  0  0  0  0  0  0
   19.8020   15.5010    4.3610 N   0  0  0  0  0  4  0  0  0  0  0  0
   20.4230   16.8090    3.9640 C   0  0  0  0  0  0  0  0  0  0  0  0
   20.2760   18.1980    5.9250 O   0  0  0  0  0  0  0  0  0  0  0  0
   22.5291   19.2637    5.1771 H   0  0  0  0  0  0  0  0  0  0  0  0
   22.8377   18.1855    3.7740 H   0  0  0  0  0  0  0  0  0  0  0  0
   21.4077   19.2726    3.7740 H   0  0  0  0  0  0  0  0  0  0  0  0
   22.4966   15.8057    5.2331 H   0  0  0  0  0  0  0  0  0  0  0  0
   22.9587   17.2038    6.2879 H   0  0  0  0  0  0  0  0  0  0  0  0
   21.1529   14.1776    6.1372 H   0  0  0  0  0  0  0  0  0  0  0  0
   20.1518   14.5735    7.6186 H   0  0  0  0  0  0  0  0  0  0  0  0
   18.6145   14.5181    5.8363 H   0  0  0  0  0  0  0  0  0  0  0  0
   18.9416   16.2635    6.1533 H   0  0  0  0  0  0  0  0  0  0  0  0
   20.4902   14.7627    4.1554 H   0  0  0  0  0  0  0  0  0  0  0  0
   18.9242   15.4649    3.8234 H   0  0  0  0  0  0  0  0  0  0  0  0
   21.1067   16.6152    3.1244 H   0  0  0  0  0  0  0  0  0  0  0  0
   19.5812   17.4727    3.7171 H   0  0  0  0  0  0  0  0  0  0  0  0
   20.5196   18.0292    6.8696 H   0  0  0  0  0  0  0  0  0  0  0  0
  2  1  1  0
  3  2  1  0
  4  3  1  0
  5  4  1  0
  6  5  1  0
  7  6  1  0
  8  7  1  0
  8  2  1  0
  2  9  1  1
  1 10  1  0
  1 11  1  0
  1 12  1  0
  3 13  1  0
  3 14  1  0
  5 15  1  0
  5 16  1  0
  6 17  1  0
  6 18  1  0
  7 19  1  0
  7 20  1  0
  8 21  1  0
  8 22  1  0
  9 23  1  0
M  CHG  1   7   1
M  END
$$$$
=
     RDKit          3D

 18 18  0  0  0  0  0  0  0  0999 V2000
   20.9020   16.6060    5.8340 C   0  0  1  0  0  0  0  0  0  0  0  0
   20.7900   18.0850    5.5810 C   0  0  0  0  0  0  0  0  0  0  0  0
   20.9770   17.1400    4.4260 C   0  0  2  0  0  0  0  0  0  0  0  0
   22.1420   16.1320    6.4700 N   0  0  0  0  0  4  0  0  0  0  0  0
   19.4770   16.6310    3.5300 S   0  0  0  0  0  6  0  0  0  0  0  0
   18.3560   17.1470    4.2850 O   0  0  0  0  0  0  0  0  0  0  0  0
   19.6740   15.2100    3.3450 O   0  0  0  0  0  0  0  0  0  0  0  0
   19.5780   17.4600    1.9670 C   0  0  0  0  0  0  0  0  0  0  0  0
   20.2883   15.8441    6.3368 H   0  0  0  0  0  0  0  0  0  0  0  0
   19.8260   18.5954    5.7230 H   0  0  0  0  0  0  0  0  0  0  0  0
   21.3175   18.9780    5.9474 H   0  0  0  0  0  0  0  0  0  0  0  0
   21.6772   17.1439    3.5777 H   0  0  0  0  0  0  0  0  0  0  0  0
   22.0393   16.1713    7.4941 H   0  0  0  0  0  0  0  0  0  0  0  0
   22.3269   15.1610    6.1805 H   0  0  0  0  0  0  0  0  0  0  0  0
   22.9275   16.7321    6.1805 H   0  0  0  0  0  0  0  0  0  0  0  0
   19.7095   18.5395    2.1323 H   0  0  0  0  0  0  0  0  0  0  0  0
   20.4351   17.0689    1.3992 H   0  0  0  0  0  0  0  0  0  0  0  0
   18.6520   17.2862    1.3992 H   0  0  0  0  0  0  0  0  0  0  0  0
  2  1  1  0
  3  2  1  0
  3  1  1  0
  4  1  1  0
  5  3  1  0
  6  5  2  0
  7  5  2  0
  8  5  1  0
  1  9  1  6
  2 10  1  0
  2 11  1  0
  3 12  1  6
  4 13  1  0
  4 14  1  0
  4 15  1  0
  8 16  1  0
  8 17  1  0
  8 18  1  0
M  CHG  1   4   1
M  END
$$$$
=
     RDKit          3D

 31 32  0  0  0  0  0  0  0  0999 V2000
   17.5960   13.9010    3.2130 O   0  0  0  0  0  0  0  0  0  0  0  0
   13.5270   14.1780    4.1330 C   0  0  0  0  0  0  0  0  0  0  0  0
   14.3800   15.2420    4.4420 C   0  0  0  0  0  0  0  0  0  0  0  0
   15.7480   15.1670    4.1660 C   0  0  0  0  0  0  0  0  0  0  0  0
   16.2670   14.0290    3.5490 C   0  0  0  0  0  0  0  0  0  0  0  0
   15.4140   12.9970    3.1610 C   0  0  0  0  0  0  0  0  0  0  0  0
   14.0480   13.0810    3.4420 C   0  0  0  0  0  0  0  0  0  0  0  0
   12.1440   14.3110    4.3040 N   0  0  0  0  0  0  0  0  0  0  0  0
   18.4840   14.7580    3.8230 C   0  0  0  0  0  0  0  0  0  0  0  0
   19.1030   14.4580    5.0410 C   0  0  0  0  0  0  0  0  0  0  0  0
   20.0230   15.3500    5.5920 C   0  0  0  0  0  0  0  0  0  0  0  0
   20.3360   16.5270    4.9030 C   0  0  0  0  0  0  0  0  0  0  0  0
   19.7250   16.8280    3.6820 C   0  0  0  0  0  0  0  0  0  0  0  0
   18.8050   15.9310    3.1370 C   0  0  0  0  0  0  0  0  0  0  0  0
   21.4980   17.6720    5.6070 S   0  0  0  0  0  6  0  0  0  0  0  0
   20.7520   18.8340    6.0520 O   0  0  0  0  0  0  0  0  0  0  0  0
   22.3390   16.9310    6.5280 O   0  0  0  0  0  0  0  0  0  0  0  0
   22.4890   18.1500    4.2160 C   0  0  0  0  0  0  0  0  0  0  0  0
   13.9691   16.1496    4.9083 H   0  0  0  0  0  0  0  0  0  0  0  0
   16.4123   16.0017    4.4342 H   0  0  0  0  0  0  0  0  0  0  0  0
   15.8155   12.1184    2.6347 H   0  0  0  0  0  0  0  0  0  0  0  0
   13.3751   12.2744    3.1156 H   0  0  0  0  0  0  0  0  0  0  0  0
   11.5189   13.5250    4.0753 H   0  0  0  0  0  0  0  0  0  0  0  0
   11.7516   15.1949    4.6585 H   0  0  0  0  0  0  0  0  0  0  0  0
   18.8646   13.5199    5.5636 H   0  0  0  0  0  0  0  0  0  0  0  0
   20.4982   15.1302    6.5594 H   0  0  0  0  0  0  0  0  0  0  0  0
   19.9671   17.7631    3.1558 H   0  0  0  0  0  0  0  0  0  0  0  0
   18.3330   16.1481    2.1674 H   0  0  0  0  0  0  0  0  0  0  0  0
   23.4265   18.6022    4.5718 H   0  0  0  0  0  0  0  0  0  0  0  0
   22.7178   17.2632    3.6067 H   0  0  0  0  0  0  0  0  0  0  0  0
   21.9374   18.8811    3.6067 H   0  0  0  0  0  0  0  0  0  0  0  0
  3  2  2  0
  4  3  1  0
  5  4  2  0
  5  1  1  0
  6  5  1  0
  7  6  2  0
  7  2  1  0
  8  2  1  0
  9  1  1  0
 10  9  2  0
 11 10  1  0
 12 11  2  0
 13 12  1  0
 14  9  1  0
 14 13  2  0
 15 12  1  0
 16 15  2  0
 17 15  2  0
 18 15  1  0
  3 19  1  0
  4 20  1  0
  6 21  1  0
  7 22  1  0
  8 23  1  0
  8 24  1  0
 10 25  1  0
 11 26  1  0
 13 27  1  0
 14 28  1  0
 18 29  1  0
 18 30  1  0
 18 31  1  0
M  END
$$$$
=
     RDKit          3D

 41 42  0  0  0  0  0  0  0  0999 V2000
   29.8400   26.6600   14.7510 C   0  0  1  0  0  0  0  0  0  0  0  0
   29.4200   28.0190   15.1850 C   0  0  2  0  0  0  0  0  0  0  0  0
   29.2260   26.7920   16.1440 C   0  0  0  0  0  0  0  0  0  0  0  0
   28.1220   24.2650   11.5630 C   0  0  0  0  0  0  0  0  0  0  0  0
   28.0990   25.6520   11.4710 C   0  0  0  0  0  0  0  0  0  0  0  0
   28.6650   26.4370   12.4850 C   0  0  0  0  0  0  0  0  0  0  0  0
   29.2410   25.8620   13.6280 C   0  0  0  0  0  0  0  0  0  0  0  0
   29.3040   24.4560   13.6700 C   0  0  0  0  0  0  0  0  0  0  0  0
   28.7360   23.6720   12.6630 C   0  0  0  0  0  0  0  0  0  0  0  0
   26.5090   22.5730   11.1080 C   0  0  0  0  0  0  0  0  0  0  0  0
   27.5920   23.3860   10.6650 O   0  0  0  0  0  0  0  0  0  0  0  0
   27.8570   28.8940   15.1280 S   0  0  0  0  0  6  0  0  0  0  0  0
   27.7050   29.5920   16.3870 O   0  0  0  0  0  0  0  0  0  0  0  0
   28.0350   29.6460   13.8960 O   0  0  0  0  0  0  0  0  0  0  0  0
   26.5990   27.6600   14.9340 C   0  0  0  0  0  0  0  0  0  0  0  0
   30.0860   26.9180   17.4010 C   0  0  0  0  0  0  0  0  0  0  0  0
   29.4630   27.7300   18.4870 N   0  0  0  0  0  4  0  0  0  0  0  0
   27.8950   26.0510   16.4650 C   0  0  0  0  0  0  0  0  0  0  0  0
   27.8480   24.6940   17.0490 N   0  0  0  0  0  4  0  0  0  0  0  0
   30.7816   26.2522   14.3546 H   0  0  0  0  0  0  0  0  0  0  0  0
   29.9681   28.9468   14.9641 H   0  0  0  0  0  0  0  0  0  0  0  0
   27.6347   26.1354   10.5988 H   0  0  0  0  0  0  0  0  0  0  0  0
   28.6574   27.5321   12.3820 H   0  0  0  0  0  0  0  0  0  0  0  0
   29.8111   23.9647   14.5135 H   0  0  0  0  0  0  0  0  0  0  0  0
   28.7742   22.5753   12.7398 H   0  0  0  0  0  0  0  0  0  0  0  0
   26.4882   22.5574   12.2077 H   0  0  0  0  0  0  0  0  0  0  0  0
   25.5622   22.9853   10.7292 H   0  0  0  0  0  0  0  0  0  0  0  0
   26.6406   21.5487   10.7292 H   0  0  0  0  0  0  0  0  0  0  0  0
   26.2578   27.3253   15.9247 H   0  0  0  0  0  0  0  0  0  0  0  0
   25.7504   28.0857   14.3784 H   0  0  0  0  0  0  0  0  0  0  0  0
   27.0083   26.8033   14.3784 H   0  0  0  0  0  0  0  0  0  0  0  0
   30.2770   25.9075   17.7915 H   0  0  0  0  0  0  0  0  0  0  0  0
   31.0075   27.4400   17.1037 H   0  0  0  0  0  0  0  0  0  0  0  0
   29.7499   27.3561   19.4029 H   0  0  0  0  0  0  0  0  0  0  0  0
   29.7718   28.7091   18.4039 H   0  0  0  0  0  0  0  0  0  0  0  0
   28.4373   27.6852   18.4039 H   0  0  0  0  0  0  0  0  0  0  0  0
   27.3479   26.7005   17.1641 H   0  0  0  0  0  0  0  0  0  0  0  0
   27.4963   25.8694   15.4560 H   0  0  0  0  0  0  0  0  0  0  0  0
   27.8504   24.7623   18.0767 H   0  0  0  0  0  0  0  0  0  0  0  0
   26.9900   24.2162   16.7386 H   0  0  0  0  0  0  0  0  0  0  0  0
   28.6709   24.1580   16.7386 H   0  0  0  0  0  0  0  0  0  0  0  0
  2  1  1  0
  3  1  1  0
  3  2  1  0
  5  4  2  0
  6  5  1  0
  7  6  2  0
  7  1  1  0
  8  7  1  0
  9  8  2  0
  9  4  1  0
 11 10  1  0
 11  4  1  0
 12  2  1  0
 13 12  2  0
 14 12  2  0
 15 12  1  0
 16  3  1  0
 17 16  1  0
 18  3  1  0
 19 18  1  0
  1 20  1  1
  2 21  1  1
  5 22  1  0
  6 23  1  0
  8 24  1  0
  9 25  1  0
 10 26  1  0
 10 27  1  0
 10 28  1  0
 15 29  1  0
 15 30  1  0
 15 31  1  0
 16 32  1  0
 16 33  1  0
 17 34  1  0
 17 35  1  0
 17 36  1  0
 18 37  1  0
 18 38  1  0
 19 39  1  0
 19 40  1  0
 19 41  1  0
M  CHG  2  17   1  19   1
M  END
$$$$
=
     RDKit          3D

 35 36  0  0  0  0  0  0  0  0999 V2000
   27.4650   24.7560   12.8540 C   0  0  2  0  0  0  0  0  0  0  0  0
   27.8360   26.2400   12.7920 C   0  0  1  0  0  0  0  0  0  0  0  0
   26.3980   25.8840   12.9480 C   0  0  2  0  0  0  0  0  0  0  0  0
   28.5710   27.0830   13.8050 C   0  0  0  0  0  0  0  0  0  0  0  0
   28.2720   28.4460   14.0010 C   0  0  0  0  0  0  0  0  0  0  0  0
   28.9980   29.2330   14.9000 C   0  0  0  0  0  0  0  0  0  0  0  0
   30.0550   28.6740   15.6030 C   0  0  0  0  0  0  0  0  0  0  0  0
   30.4050   27.3480   15.4130 C   0  0  0  0  0  0  0  0  0  0  0  0
   29.6760   26.5670   14.5110 C   0  0  0  0  0  0  0  0  0  0  0  0
   30.7520   29.4290   16.4610 F   0  0  0  0  0  0  0  0  0  0  0  0
   25.3960   25.5740   14.3980 S   0  0  0  0  0  6  0  0  0  0  0  0
   24.6410   24.4120   13.9460 O   0  0  0  0  0  0  0  0  0  0  0  0
   26.2450   25.5090   15.5630 O   0  0  0  0  0  0  0  0  0  0  0  0
   24.3010   26.9600   14.5350 C   0  0  0  0  0  0  0  0  0  0  0  0
   27.9590   23.8660   14.0040 C   0  0  0  0  0  0  0  0  0  0  0  0
   27.1220   22.7900   14.3380 O   0  0  0  0  0  0  0  0  0  0  0  0
   27.2350   23.9110   11.6180 C   0  0  0  0  0  0  0  0  0  0  0  0
   28.2460   22.8240   11.4820 N   0  0  0  0  0  4  0  0  0  0  0  0
   28.4611   26.8036   12.0837 H   0  0  0  0  0  0  0  0  0  0  0  0
   25.5579   26.3916   12.4514 H   0  0  0  0  0  0  0  0  0  0  0  0
   27.4476   28.9018   13.4330 H   0  0  0  0  0  0  0  0  0  0  0  0
   28.7324   30.2900   15.0490 H   0  0  0  0  0  0  0  0  0  0  0  0
   31.2496   26.9125   15.9671 H   0  0  0  0  0  0  0  0  0  0  0  0
   29.9734   25.5206   14.3479 H   0  0  0  0  0  0  0  0  0  0  0  0
   24.1241   27.1839   15.5973 H   0  0  0  0  0  0  0  0  0  0  0  0
   24.7543   27.8351   14.0464 H   0  0  0  0  0  0  0  0  0  0  0  0
   23.3448   26.7215   14.0464 H   0  0  0  0  0  0  0  0  0  0  0  0
   28.9394   23.4568   13.7187 H   0  0  0  0  0  0  0  0  0  0  0  0
   27.9899   24.5120   14.8938 H   0  0  0  0  0  0  0  0  0  0  0  0
   27.0616   22.7123   15.3231 H   0  0  0  0  0  0  0  0  0  0  0  0
   26.2344   23.4582   11.6797 H   0  0  0  0  0  0  0  0  0  0  0  0
   27.3246   24.5669   10.7395 H   0  0  0  0  0  0  0  0  0  0  0  0
   28.5392   22.5088   12.4177 H   0  0  0  0  0  0  0  0  0  0  0  0
   27.8329   22.0333   10.9672 H   0  0  0  0  0  0  0  0  0  0  0  0
   29.0645   23.1788   10.9672 H   0  0  0  0  0  0  0  0  0  0  0  0
  2  1  1  0
  3  2  1  0
  3  1  1  0
  4  2  1  0
  5  4  2  0
  6  5  1  0
  7  6  2  0
  8  7  1  0
  9  4  1  0
  9  8  2  0
 10  7  1  0
 11  3  1  0
 12 11  2  0
 13 11  2  0
 14 11  1  0
  1 15  1  1
 16 15  1  0
 17  1  1  0
 18 17  1  0
  2 19  1  6
  3 20  1  6
  5 21  1  0
  6 22  1  0
  8 23  1  0
  9 24  1  0
 14 25  1  0
 14 26  1  0
 14 27  1  0
 15 28  1  0
 15 29  1  0
 16 30  1  0
 17 31  1  0
 17 32  1  0
 18 33  1  0
 18 34  1  0
 18 35  1  0
M  CHG  1  18   1
M  END
$$$$
=
     RDKit          3D

 22 23  0  0  0  0  0  0  0  0999 V2000
   18.3220   15.6650    4.3830 C   0  0  2  0  0  0  0  0  0  0  0  0
   17.5680   14.4530    3.8160 C   0  0  0  0  0  0  0  0  0  0  0  0
   16.1730   14.8240    3.3090 C   0  0  0  0  0  0  0  0  0  0  0  0
   15.2860   15.3510    4.4340 C   0  0  0  0  0  0  0  0  0  0  0  0
   15.9790   16.3720    5.2880 C   0  0  2  0  0  0  0  0  0  0  0  0
   17.4860   16.4920    5.3160 C   0  0  1  0  0  0  0  0  0  0  0  0
   16.7610   15.8880    6.4890 C   0  0  0  0  0  0  0  0  0  0  0  0
   18.8020   16.4880    3.2380 N   0  0  0  0  0  4  0  0  0  0  0  0
   19.1672   15.2989    4.9844 H   0  0  0  0  0  0  0  0  0  0  0  0
   18.1484   14.0341    2.9807 H   0  0  0  0  0  0  0  0  0  0  0  0
   17.4479   13.7207    4.6280 H   0  0  0  0  0  0  0  0  0  0  0  0
   16.2693   15.6015    2.5368 H   0  0  0  0  0  0  0  0  0  0  0  0
   15.7045   13.9173    2.8986 H   0  0  0  0  0  0  0  0  0  0  0  0
   14.3914   15.8122    3.9901 H   0  0  0  0  0  0  0  0  0  0  0  0
   15.0266   14.4989    5.0794 H   0  0  0  0  0  0  0  0  0  0  0  0
   15.1637   17.0859    5.0993 H   0  0  0  0  0  0  0  0  0  0  0  0
   18.2151   17.3083    5.2059 H   0  0  0  0  0  0  0  0  0  0  0  0
   16.7023   16.4366    7.4406 H   0  0  0  0  0  0  0  0  0  0  0  0
   16.8301   14.9385    7.0401 H   0  0  0  0  0  0  0  0  0  0  0  0
   19.2887   17.3225    3.5952 H   0  0  0  0  0  0  0  0  0  0  0  0
   19.4511   15.9316    2.6635 H   0  0  0  0  0  0  0  0  0  0  0  0
   17.9981   16.7790    2.6635 H   0  0  0  0  0  0  0  0  0  0  0  0
  2  1  1  0
  3  2  1  0
  4  3  1  0
  5  4  1  0
  6  5  1  0
  6  1  1  0
  7  5  1  0
  7  6  1  0
  8  1  1  0
  1  9  1  1
  2 10  1  0
  2 11  1  0
  3 12  1  0
  3 13  1  0
  4 14  1  0
  4 15  1  0
  5 16  1  1
  6 17  1  1
  7 18  1  0
  7 19  1  0
  8 20  1  0
  8 21  1  0
  8 22  1  0
M  CHG  1   8   1
M  END
$$$$
=
     RDKit          3D

 45 47  0  0  0  0  0  0  0  0999 V2000
   19.5920   14.8810    3.8020 N   0  0  0  0  0  4  0  0  0  0  0  0
   18.1890   14.5010    3.3580 C   0  0  1  0  0  0  0  0  0  0  0  0
   18.0730   12.9780    3.3220 C   0  0  0  0  0  0  0  0  0  0  0  0
   16.7060   12.5730    2.7690 C   0  0  0  0  0  0  0  0  0  0  0  0
   15.5660   13.3710    3.3510 C   0  0  0  0  0  0  0  0  0  0  0  0
   15.7720   14.5700    4.0590 C   0  0  0  0  0  0  0  0  0  0  0  0
   17.1580   15.0820    4.3350 C   0  0  0  0  0  0  0  0  0  0  0  0
   14.6690   15.2690    4.5720 C   0  0  0  0  0  0  0  0  0  0  0  0
   13.3730   14.8020    4.3550 C   0  0  0  0  0  0  0  0  0  0  0  0
   13.1660   13.6300    3.6340 C   0  0  0  0  0  0  0  0  0  0  0  0
   14.2550   12.9190    3.1340 C   0  0  0  0  0  0  0  0  0  0  0  0
   19.8710   14.9080    5.2890 C   0  0  0  0  0  0  0  0  0  0  0  0
   21.1940   15.6270    5.6710 C   0  0  0  0  0  0  0  0  0  0  0  0
   20.5170   17.8870    3.4400 O   0  0  0  0  0  0  0  0  0  0  0  0
   19.5920   18.4530    4.3770 C   0  0  0  0  0  0  0  0  0  0  0  0
   19.7200   17.7510    5.7380 C   0  0  0  0  0  0  0  0  0  0  0  0
   21.1130   17.1280    5.9220 N   0  0  0  0  0  4  0  0  0  0  0  0
   22.1900   17.9810    5.2510 C   0  0  0  0  0  0  0  0  0  0  0  0
   21.8660   18.2520    3.7740 C   0  0  0  0  0  0  0  0  0  0  0  0
   20.2434   14.2051    3.3781 H   0  0  0  0  0  0  0  0  0  0  0  0
   19.7088   15.8573    3.4954 H   0  0  0  0  0  0  0  0  0  0  0  0
   17.9947   14.9090    2.3551 H   0  0  0  0  0  0  0  0  0  0  0  0
   18.8637   12.5671    2.6770 H   0  0  0  0  0  0  0  0  0  0  0  0
   18.1825   12.5823    4.3425 H   0  0  0  0  0  0  0  0  0  0  0  0
   16.7134   12.7190    1.6788 H   0  0  0  0  0  0  0  0  0  0  0  0
   16.5416   11.5211    3.0456 H   0  0  0  0  0  0  0  0  0  0  0  0
   17.1573   16.1780    4.2408 H   0  0  0  0  0  0  0  0  0  0  0  0
   17.4396   14.7710    5.3518 H   0  0  0  0  0  0  0  0  0  0  0  0
   14.8276   16.1918    5.1494 H   0  0  0  0  0  0  0  0  0  0  0  0
   12.5136   15.3606    4.7542 H   0  0  0  0  0  0  0  0  0  0  0  0
   12.1432   13.2650    3.4589 H   0  0  0  0  0  0  0  0  0  0  0  0
   14.0856   11.9940    2.5634 H   0  0  0  0  0  0  0  0  0  0  0  0
   19.0390   15.4268    5.7876 H   0  0  0  0  0  0  0  0  0  0  0  0
   19.9727   13.8616    5.6126 H   0  0  0  0  0  0  0  0  0  0  0  0
   21.5754   15.1562    6.5891 H   0  0  0  0  0  0  0  0  0  0  0  0
   21.8454   15.5171    4.7915 H   0  0  0  0  0  0  0  0  0  0  0  0
   19.8081   19.5246    4.4990 H   0  0  0  0  0  0  0  0  0  0  0  0
   18.5684   18.3175    3.9978 H   0  0  0  0  0  0  0  0  0  0  0  0
   19.5493   18.4872    6.5373 H   0  0  0  0  0  0  0  0  0  0  0  0
   18.9730   16.9448    5.7820 H   0  0  0  0  0  0  0  0  0  0  0  0
   21.3204   17.1582    6.9304 H   0  0  0  0  0  0  0  0  0  0  0  0
   22.2645   18.9419    5.7812 H   0  0  0  0  0  0  0  0  0  0  0  0
   23.1405   17.4291    5.2966 H   0  0  0  0  0  0  0  0  0  0  0  0
   22.5566   17.6692    3.1468 H   0  0  0  0  0  0  0  0  0  0  0  0
   21.9785   19.3316    3.5954 H   0  0  0  0  0  0  0  0  0  0  0  0
  2  1  1  0
  3  2  1  0
  4  3  1  0
  5  4  1  0
  6  5  2  0
  7  6  1  0
  7  2  1  0
  8  6  1  0
  9  8  2  0
 10  9  1  0
 11 10  2  0
 11  5  1  0
 12  1  1  0
 13 12  1  0
 15 14  1  0
 16 15  1  0
 17 13  1  0
 17 16  1  0
 18 17  1  0
 19 14  1  0
 19 18  1  0
  1 20  1  0
  1 21  1  0
  2 22  1  6
  3 23  1  0
  3 24  1  0
  4 25  1  0
  4 26  1  0
  7 27  1  0
  7 28  1  0
  8 29  1  0
  9 30  1  0
 10 31  1  0
 11 32  1  0
 12 33  1  0
 12 34  1  0
 13 35  1  0
 13 36  1  0
 15 37  1  0
 15 38  1  0
 16 39  1  0
 16 40  1  0
 17 41  1  0
 18 42  1  0
 18 43  1  0
 19 44  1  0
 19 45  1  0
M  CHG  2   1   1  17   1
M  END
$$$$
=
     RDKit          3D

 46 49  0  0  0  0  0  0  0  0999 V2000
   16.6520   14.9400    4.7400 C   0  0  0  0  0  0  0  0  0  0  0  0
   17.7400   14.7530    3.6710 C   0  0  0  0  0  0  0  0  0  0  0  0
   18.4820   15.8140    4.3340 N   0  0  0  0  0  0  0  0  0  0  0  0
   17.2320   16.3610    4.8420 C   0  0  0  0  0  0  0  0  0  0  0  0
   19.3790   16.6500    3.6220 C   0  0  0  0  0  0  0  0  0  0  0  0
   19.3380   16.6410    2.2800 N   0  0  0  0  0  0  0  0  0  0  0  0
   20.1930   17.4330    1.6310 C   0  0  0  0  0  0  0  0  0  0  0  0
   21.1120   18.2170    2.2060 N   0  0  0  0  0  0  0  0  0  0  0  0
   21.1470   18.2150    3.5490 C   0  0  0  0  0  0  0  0  0  0  0  0
   20.3020   17.4270    4.3240 C   0  0  0  0  0  0  0  0  0  0  0  0
   20.4420   17.3750    5.8220 C   0  0  0  0  0  0  0  0  0  0  0  0
   21.7770   16.7610    6.2470 C   0  0  0  0  0  0  0  0  0  0  0  0
   22.8960   17.7610    6.1780 N   0  0  0  0  0  4  0  0  0  0  0  0
   23.3030   18.2330    4.8110 C   0  0  0  0  0  0  0  0  0  0  0  0
   22.2180   19.0780    4.1610 C   0  0  0  0  0  0  0  0  0  0  0  0
   15.2690   14.8550    4.3230 O   0  0  0  0  0  0  0  0  0  0  0  0
   14.8730   13.6400    3.6830 C   0  0  0  0  0  0  0  0  0  0  0  0
   10.5790   13.3450    3.4090 C   0  0  0  0  0  0  0  0  0  0  0  0
   11.3860   12.4920    2.6570 C   0  0  0  0  0  0  0  0  0  0  0  0
   12.7760   12.5840    2.7470 C   0  0  0  0  0  0  0  0  0  0  0  0
   13.3730   13.5270    3.5950 C   0  0  0  0  0  0  0  0  0  0  0  0
   12.5510   14.3850    4.3410 C   0  0  0  0  0  0  0  0  0  0  0  0
   11.1610   14.2930    4.2490 C   0  0  0  0  0  0  0  0  0  0  0  0
   16.5323   14.2516    5.5896 H   0  0  0  0  0  0  0  0  0  0  0  0
   18.2333   13.7699    3.6852 H   0  0  0  0  0  0  0  0  0  0  0  0
   17.5088   14.7923    2.5963 H   0  0  0  0  0  0  0  0  0  0  0  0
   17.2880   16.7620    5.8648 H   0  0  0  0  0  0  0  0  0  0  0  0
   16.7409   17.2233    4.3674 H   0  0  0  0  0  0  0  0  0  0  0  0
   20.1379   17.4422    0.5324 H   0  0  0  0  0  0  0  0  0  0  0  0
   20.3774   18.3979    6.2213 H   0  0  0  0  0  0  0  0  0  0  0  0
   19.6335   16.7436    6.2192 H   0  0  0  0  0  0  0  0  0  0  0  0
   21.6884   16.3961    7.2809 H   0  0  0  0  0  0  0  0  0  0  0  0
   22.0106   15.9371    5.5566 H   0  0  0  0  0  0  0  0  0  0  0  0
   22.6078   18.5883    6.7197 H   0  0  0  0  0  0  0  0  0  0  0  0
   23.7206   17.2669    6.5478 H   0  0  0  0  0  0  0  0  0  0  0  0
   24.2188   18.8358    4.9001 H   0  0  0  0  0  0  0  0  0  0  0  0
   23.4730   17.3485    4.1795 H   0  0  0  0  0  0  0  0  0  0  0  0
   22.6707   19.6995    3.3743 H   0  0  0  0  0  0  0  0  0  0  0  0
   21.7565   19.7074    4.9362 H   0  0  0  0  0  0  0  0  0  0  0  0
   15.2936   13.6175    2.6668 H   0  0  0  0  0  0  0  0  0  0  0  0
   15.2487   12.7963    4.2805 H   0  0  0  0  0  0  0  0  0  0  0  0
    9.4838   13.2698    3.3394 H   0  0  0  0  0  0  0  0  0  0  0  0
   10.9268   11.7457    1.9921 H   0  0  0  0  0  0  0  0  0  0  0  0
   13.4075   11.9114    2.1480 H   0  0  0  0  0  0  0  0  0  0  0  0
   13.0054   15.1362    5.0037 H   0  0  0  0  0  0  0  0  0  0  0  0
   10.5249   14.9688    4.8395 H   0  0  0  0  0  0  0  0  0  0  0  0
  2  1  1  0
  3  2  1  0
  4  3  1  0
  4  1  1  0
  5  3  1  0
  6  5  2  0
  7  6  1  0
  8  7  2  0
  9  8  1  0
 10  9  2  0
 10  5  1  0
 11 10  1  0
 12 11  1  0
 13 12  1  0
 14 13  1  0
 15  9  1  0
 15 14  1  0
 16  1  1  0
 17 16  1  0
 19 18  2  0
 20 19  1  0
 21 20  2  0
 21 17  1  0
 22 21  1  0
 23 18  1  0
 23 22  2  0
  1 24  1  0
  2 25  1  0
  2 26  1  0
  4 27  1  0
  4 28  1  0
  7 29  1  0
 11 30  1  0
 11 31  1  0
 12 32  1  0
 12 33  1  0
 13 34  1  0
 13 35  1  0
 14 36  1  0
 14 37  1  0
 15 38  1  0
 15 39  1  0
 17 40  1  0
 17 41  1  0
 18 42  1  0
 19 43  1  0
 20 44  1  0
 22 45  1  0
 23 46  1  0
M  CHG  1  13   1
M  END
$$$$
=
     RDKit          3D

 50 51  0  0  0  0  0  0  0  0999 V2000
   16.7590   14.8330    5.0040 C   0  0  2  0  0  0  0  0  0  0  0  0
   15.6070   14.5930    4.0080 C   0  0  0  0  0  0  0  0  0  0  0  0
   15.7570   14.8200    2.8110 O   0  0  0  0  0  0  0  0  0  0  0  0
   14.4760   14.0810    4.6190 N   0  0  0  0  0  0  0  0  0  0  0  0
   13.2630   13.7000    4.0180 C   0  0  0  0  0  0  0  0  0  0  0  0
   13.1440   12.6750    3.0830 C   0  0  0  0  0  0  0  0  0  0  0  0
   11.8940   12.3550    2.5370 C   0  0  0  0  0  0  0  0  0  0  0  0
   10.7520   13.0790    2.8820 C   0  0  0  0  0  0  0  0  0  0  0  0
   10.8640   14.0620    3.8650 C   0  0  0  0  0  0  0  0  0  0  0  0
   12.1100   14.3860    4.4150 C   0  0  0  0  0  0  0  0  0  0  0  0
    9.4950   12.6780    2.4230 N   0  0  0  0  0  0  0  0  0  0  0  0
   16.3910   15.4180    7.4470 C   0  0  0  0  0  0  0  0  0  0  0  0
   16.3060   15.9050    6.0070 C   0  0  0  0  0  0  0  0  0  0  0  0
   17.9310   15.3260    4.3470 O   0  0  0  0  0  0  0  0  0  0  0  0
   19.0850   15.4410    5.0770 C   0  0  0  0  0  0  0  0  0  0  0  0
   19.5990   14.4220    5.8900 C   0  0  0  0  0  0  0  0  0  0  0  0
   20.7890   14.6120    6.5940 C   0  0  0  0  0  0  0  0  0  0  0  0
   21.4760   15.8140    6.4900 C   0  0  0  0  0  0  0  0  0  0  0  0
   20.9800   16.8290    5.6730 C   0  0  0  0  0  0  0  0  0  0  0  0
   19.7890   16.6560    4.9440 C   0  0  0  0  0  0  0  0  0  0  0  0
   19.2600   17.7880    4.0640 C   0  0  2  0  0  0  0  0  0  0  0  0
   20.0310   17.8840    2.7420 C   0  0  0  0  0  0  0  0  0  0  0  0
   19.2670   19.1150    4.8520 C   0  0  0  0  0  0  0  0  0  0  0  0
   18.4780   19.0480    6.1510 C   0  0  0  0  0  0  0  0  0  0  0  0
   16.9997   13.8769    5.4918 H   0  0  0  0  0  0  0  0  0  0  0  0
   14.5291   13.9644    5.6410 H   0  0  0  0  0  0  0  0  0  0  0  0
   14.0368   12.1131    2.7712 H   0  0  0  0  0  0  0  0  0  0  0  0
   11.8115   11.5202    1.8254 H   0  0  0  0  0  0  0  0  0  0  0  0
    9.9629   14.5888    4.2122 H   0  0  0  0  0  0  0  0  0  0  0  0
   12.1831   15.1867    5.1657 H   0  0  0  0  0  0  0  0  0  0  0  0
    8.6563   13.2171    2.6815 H   0  0  0  0  0  0  0  0  0  0  0  0
    9.4069   11.8433    1.8260 H   0  0  0  0  0  0  0  0  0  0  0  0
   16.2428   16.2670    8.1305 H   0  0  0  0  0  0  0  0  0  0  0  0
   15.6110   14.6631    7.6254 H   0  0  0  0  0  0  0  0  0  0  0  0
   17.3806   14.9720    7.6254 H   0  0  0  0  0  0  0  0  0  0  0  0
   16.9491   16.7902    5.8939 H   0  0  0  0  0  0  0  0  0  0  0  0
   15.2539   16.1444    5.7931 H   0  0  0  0  0  0  0  0  0  0  0  0
   19.0611   13.4662    5.9739 H   0  0  0  0  0  0  0  0  0  0  0  0
   21.1834   13.8078    7.2325 H   0  0  0  0  0  0  0  0  0  0  0  0
   22.4099   15.9652    7.0512 H   0  0  0  0  0  0  0  0  0  0  0  0
   21.5282   17.7797    5.5971 H   0  0  0  0  0  0  0  0  0  0  0  0
   18.2180   17.5661    3.7902 H   0  0  0  0  0  0  0  0  0  0  0  0
   21.1026   18.0174    2.9514 H   0  0  0  0  0  0  0  0  0  0  0  0
   19.8827   16.9605    2.1631 H   0  0  0  0  0  0  0  0  0  0  0  0
   19.6608   18.7430    2.1631 H   0  0  0  0  0  0  0  0  0  0  0  0
   20.3092   19.3744    5.0896 H   0  0  0  0  0  0  0  0  0  0  0  0
   18.7854   19.8733    4.2172 H   0  0  0  0  0  0  0  0  0  0  0  0
   19.1702   19.1068    7.0039 H   0  0  0  0  0  0  0  0  0  0  0  0
   17.7707   19.8893    6.1942 H   0  0  0  0  0  0  0  0  0  0  0  0
   17.9226   18.0995    6.1942 H   0  0  0  0  0  0  0  0  0  0  0  0
  2  1  1  0
  3  2  2  0
  4  2  1  0
  5  4  1  0
  6  5  2  0
  7  6  1  0
  8  7  2  0
  9  8  1  0
 10  9  2  0
 10  5  1  0
 11  8  1  0
 13  1  1  0
 13 12  1  0
 14  1  1  0
 15 14  1  0
 16 15  2  0
 17 16  1  0
 18 17  2  0
 19 18  1  0
 20 15  1  0
 20 19  2  0
 21 20  1  0
 22 21  1  0
 23 21  1  0
 24 23  1  0
  1 25  1  1
  4 26  1  0
  6 27  1  0
  7 28  1  0
  9 29  1  0
 10 30  1  0
 11 31  1  0
 11 32  1  0
 12 33  1  0
 12 34  1  0
 12 35  1  0
 13 36  1  0
 13 37  1  0
 16 38  1  0
 17 39  1  0
 18 40  1  0
 19 41  1  0
 21 42  1  6
 22 43  1  0
 22 44  1  0
 22 45  1  0
 23 46  1  0
 23 47  1  0
 24 48  1  0
 24 49  1  0
 24 50  1  0
M  END
$$$$
=
     RDKit          3D

 41 43  0  0  0  0  0  0  0  0999 V2000
   16.3310   15.9980    6.5910 C   0  0  0  0  0  0  0  0  0  0  0  0
   17.7450   16.1790    6.1300 C   0  0  0  0  0  0  0  0  0  0  0  0
   18.1450   17.2990    5.5110 N   0  0  0  0  0  0  0  0  0  0  0  0
   19.4350   17.0840    5.2250 N   0  0  0  0  0  0  0  0  0  0  0  0
   19.9010   15.8780    5.6730 C   0  0  0  0  0  0  0  0  0  0  0  0
   18.8170   15.2630    6.2630 C   0  0  0  0  0  0  0  0  0  0  0  0
   21.2890   15.4310    5.4980 C   0  0  0  0  0  0  0  0  0  0  0  0
   22.2370   16.3610    6.1690 N   0  0  0  0  0  4  0  0  0  0  0  0
   22.5530   17.6220    5.4400 C   0  0  0  0  0  0  0  0  0  0  0  0
   21.3830   18.5990    5.4120 C   0  0  0  0  0  0  0  0  0  0  0  0
   20.2030   18.1250    4.5680 C   0  0  0  0  0  0  0  0  0  0  0  0
   14.8820   15.3490    4.7130 C   0  0  0  0  0  0  0  0  0  0  0  0
   14.6480   16.5210    4.4340 O   0  0  0  0  0  0  0  0  0  0  0  0
   15.6790   14.9960    5.7750 N   0  0  0  0  0  0  0  0  0  0  0  0
   12.9800   12.7260    2.9650 C   0  0  0  0  0  0  0  0  0  0  0  0
   14.2660   12.4410    2.5630 C   0  0  0  0  0  0  0  0  0  0  0  0
   15.1130   13.3320    3.1750 N   0  0  0  0  0  0  0  0  0  0  0  0
   14.3850   14.2380    3.9270 C   0  0  0  0  0  0  0  0  0  0  0  0
   13.0560   13.8380    3.8360 C   0  0  0  0  0  0  0  0  0  0  0  0
   16.5580   13.2370    3.0970 C   0  0  0  0  0  0  0  0  0  0  0  0
   10.8540   11.4290    2.2540 N   0  0  0  0  0  0  0  0  0  0  0  0
   11.8060   12.0110    2.5730 C   0  0  0  0  0  0  0  0  0  0  0  0
   16.3273   15.6734    7.6420 H   0  0  0  0  0  0  0  0  0  0  0  0
   15.7915   16.9522    6.4985 H   0  0  0  0  0  0  0  0  0  0  0  0
   18.7905   14.2706    6.7368 H   0  0  0  0  0  0  0  0  0  0  0  0
   21.4012   14.4270    5.9332 H   0  0  0  0  0  0  0  0  0  0  0  0
   21.5183   15.4124    4.4223 H   0  0  0  0  0  0  0  0  0  0  0  0
   21.8318   16.6185    7.0802 H   0  0  0  0  0  0  0  0  0  0  0  0
   23.1282   15.8481    6.2293 H   0  0  0  0  0  0  0  0  0  0  0  0
   23.4058   18.1095    5.9350 H   0  0  0  0  0  0  0  0  0  0  0  0
   22.7839   17.3529    4.3987 H   0  0  0  0  0  0  0  0  0  0  0  0
   21.0327   18.7498    6.4438 H   0  0  0  0  0  0  0  0  0  0  0  0
   21.7526   19.5274    4.9521 H   0  0  0  0  0  0  0  0  0  0  0  0
   19.5416   18.9820    4.3729 H   0  0  0  0  0  0  0  0  0  0  0  0
   20.6059   17.7055    3.6343 H   0  0  0  0  0  0  0  0  0  0  0  0
   15.8152   13.9990    5.9947 H   0  0  0  0  0  0  0  0  0  0  0  0
   14.5632   11.6388    1.8716 H   0  0  0  0  0  0  0  0  0  0  0  0
   12.2068   14.3074    4.3542 H   0  0  0  0  0  0  0  0  0  0  0  0
   16.9790   13.2093    4.1129 H   0  0  0  0  0  0  0  0  0  0  0  0
   16.8366   12.3186    2.5595 H   0  0  0  0  0  0  0  0  0  0  0  0
   16.9544   14.1110    2.5595 H   0  0  0  0  0  0  0  0  0  0  0  0
  2  1  1  0
  3  2  2  0
  4  3  1  0
  5  4  1  0
  6  5  2  0
  6  2  1  0
  7  5  1  0
  8  7  1  0
  9  8  1  0
 10  9  1  0
 11 10  1  0
 11  4  1  0
 13 12  2  0
 14 12  1  0
 14  1  1  0
 16 15  2  0
 17 16  1  0
 18 17  1  0
 18 12  1  0
 19 18  2  0
 19 15  1  0
 20 17  1  0
 22 21  3  0
 22 15  1  0
  1 23  1  0
  1 24  1  0
  6 25  1  0
  7 26  1  0
  7 27  1  0
  8 28  1  0
  8 29  1  0
  9 30  1  0
  9 31  1  0
 10 32  1  0
 10 33  1  0
 11 34  1  0
 11 35  1  0
 14 36  1  0
 16 37  1  0
 19 38  1  0
 20 39  1  0
 20 40  1  0
 20 41  1  0
M  CHG  1   8   1
M  END
$$$$
=
     RDKit          3D

 34 36  0  0  0  0  0  0  0  0999 V2000
   14.5550   13.9240    3.6180 C   0  0  0  0  0  0  0  0  0  0  0  0
   14.3570   15.2310    4.3660 C   0  0  0  0  0  0  0  0  0  0  0  0
   15.2370   15.3460    5.4840 O   0  0  0  0  0  0  0  0  0  0  0  0
   16.4950   15.7460    5.1360 C   0  0  0  0  0  0  0  0  0  0  0  0
   17.3390   15.0170    4.3040 C   0  0  0  0  0  0  0  0  0  0  0  0
   17.0010   13.8270    3.7240 O   0  0  0  0  0  0  0  0  0  0  0  0
   15.8710   13.9290    2.8560 C   0  0  0  0  0  0  0  0  0  0  0  0
   18.6640   15.4270    4.1250 C   0  0  0  0  0  0  0  0  0  0  0  0
   19.1660   16.5820    4.7550 C   0  0  0  0  0  0  0  0  0  0  0  0
   18.2940   17.3150    5.5720 C   0  0  0  0  0  0  0  0  0  0  0  0
   16.9760   16.8910    5.7710 C   0  0  0  0  0  0  0  0  0  0  0  0
   20.6160   16.9360    4.5570 C   0  0  2  0  0  0  0  0  0  0  0  0
   21.4230   16.6710    5.8060 N   0  0  0  0  0  4  0  0  0  0  0  0
   22.5410   17.6640    5.8830 C   0  0  0  0  0  0  0  0  0  0  0  0
   22.4700   18.4220    4.5720 C   0  0  0  0  0  0  0  0  0  0  0  0
   20.9920   18.3790    4.2260 C   0  0  0  0  0  0  0  0  0  0  0  0
   14.5595   13.0934    4.3392 H   0  0  0  0  0  0  0  0  0  0  0  0
   13.7323   13.8030    2.8979 H   0  0  0  0  0  0  0  0  0  0  0  0
   14.5473   16.0669    3.6768 H   0  0  0  0  0  0  0  0  0  0  0  0
   13.3239   15.2535    4.7431 H   0  0  0  0  0  0  0  0  0  0  0  0
   15.8806   13.0762    2.1612 H   0  0  0  0  0  0  0  0  0  0  0  0
   15.9449   14.8860    2.3188 H   0  0  0  0  0  0  0  0  0  0  0  0
   19.3281   14.8347    3.4784 H   0  0  0  0  0  0  0  0  0  0  0  0
   18.6500   18.2333    6.0618 H   0  0  0  0  0  0  0  0  0  0  0  0
   16.3128   17.4657    6.4343 H   0  0  0  0  0  0  0  0  0  0  0  0
   20.8315   16.3056    3.6817 H   0  0  0  0  0  0  0  0  0  0  0  0
   20.8186   16.7664    6.6345 H   0  0  0  0  0  0  0  0  0  0  0  0
   21.8071   15.7157    5.7763 H   0  0  0  0  0  0  0  0  0  0  0  0
   22.3969   18.3458    6.7341 H   0  0  0  0  0  0  0  0  0  0  0  0
   23.5180   17.1815    6.0335 H   0  0  0  0  0  0  0  0  0  0  0  0
   22.8160   19.4587    4.6965 H   0  0  0  0  0  0  0  0  0  0  0  0
   23.1093   17.9893    3.7883 H   0  0  0  0  0  0  0  0  0  0  0  0
   20.8267   18.5984    3.1609 H   0  0  0  0  0  0  0  0  0  0  0  0
   20.3927   19.1238    4.7702 H   0  0  0  0  0  0  0  0  0  0  0  0
  2  1  1  0
  3  2  1  0
  4  3  1  0
  5  4  2  0
  6  5  1  0
  7  1  1  0
  7  6  1  0
  8  5  1  0
  9  8  2  0
 10  9  1  0
 11  4  1  0
 11 10  2  0
 12  9  1  0
 13 12  1  0
 14 13  1  0
 15 14  1  0
 16 12  1  0
 16 15  1  0
  1 17  1  0
  1 18  1  0
  2 19  1  0
  2 20  1  0
  7 21  1  0
  7 22  1  0
  8 23  1  0
 10 24  1  0
 11 25  1  0
 12 26  1  6
 13 27  1  0
 13 28  1  0
 14 29  1  0
 14 30  1  0
 15 31  1  0
 15 32  1  0
 16 33  1  0
 16 34  1  0
M  CHG  1  13   1
M  END
$$$$
=
     RDKit          3D

 32 34  0  0  0  0  0  0  0  0999 V2000
   17.8440   16.1070    5.4090 C   0  0  2  0  0  0  0  0  0  0  0  0
   18.1870   17.6070    5.6060 C   0  0  0  0  0  0  0  0  0  0  0  0
   19.5630   17.9410    5.0010 C   0  0  1  0  0  0  0  0  0  0  0  0
   20.6380   17.0800    5.6810 C   0  0  0  0  0  0  0  0  0  0  0  0
   20.3100   15.5970    5.4970 C   0  0  1  0  0  0  0  0  0  0  0  0
   18.9410   15.2590    6.0890 C   0  0  0  0  0  0  0  0  0  0  0  0
   20.2490   15.3210    4.0150 N   0  0  0  0  0  4  0  0  0  0  0  0
   19.2070   16.1390    3.2900 C   0  0  1  0  0  0  0  0  0  0  0  0
   17.8450   15.7980    3.8950 C   0  0  0  0  0  0  0  0  0  0  0  0
   19.5480   17.6160    3.4990 C   0  0  0  0  0  0  0  0  0  0  0  0
   16.4790   15.7920    6.0130 C   0  0  0  0  0  0  0  0  0  0  0  0
   16.3050   15.4290    7.1660 O   0  0  0  0  0  0  0  0  0  0  0  0
   14.5730   14.8810    5.0030 C   0  0  0  0  0  0  0  0  0  0  0  0
   15.4950   15.9720    5.0900 O   0  0  0  0  0  0  0  0  0  0  0  0
   17.4184   18.2199    5.1124 H   0  0  0  0  0  0  0  0  0  0  0  0
   18.2162   17.8218    6.6844 H   0  0  0  0  0  0  0  0  0  0  0  0
   19.7826   19.0080    5.1539 H   0  0  0  0  0  0  0  0  0  0  0  0
   21.6176   17.2957    5.2295 H   0  0  0  0  0  0  0  0  0  0  0  0
   20.6641   17.3147    6.7553 H   0  0  0  0  0  0  0  0  0  0  0  0
   21.0786   14.9945    6.0032 H   0  0  0  0  0  0  0  0  0  0  0  0
   18.9488   15.4720    7.1681 H   0  0  0  0  0  0  0  0  0  0  0  0
   18.7288   14.1931    5.9191 H   0  0  0  0  0  0  0  0  0  0  0  0
   21.1707   15.5317    3.6063 H   0  0  0  0  0  0  0  0  0  0  0  0
   19.9877   14.3310    3.9027 H   0  0  0  0  0  0  0  0  0  0  0  0
   19.1836   15.9253    2.2112 H   0  0  0  0  0  0  0  0  0  0  0  0
   17.0668   16.3981    3.4007 H   0  0  0  0  0  0  0  0  0  0  0  0
   17.6429   14.7270    3.7460 H   0  0  0  0  0  0  0  0  0  0  0  0
   20.5391   17.8259    3.0703 H   0  0  0  0  0  0  0  0  0  0  0  0
   18.7889   18.2373    3.0012 H   0  0  0  0  0  0  0  0  0  0  0  0
   14.2961   14.5533    6.0159 H   0  0  0  0  0  0  0  0  0  0  0  0
   13.6711   15.2053    4.4631 H   0  0  0  0  0  0  0  0  0  0  0  0
   15.0431   14.0458    4.4631 H   0  0  0  0  0  0  0  0  0  0  0  0
  2  1  1  0
  3  2  1  0
  4  3  1  0
  5  4  1  0
  6  1  1  0
  6  5  1  0
  7  5  1  0
  8  7  1  0
  9  8  1  0
  9  1  1  0
 10  8  1  0
 10  3  1  0
  1 11  1  1
 12 11  2  0
 14 13  1  0
 14 11  1  0
  2 15  1  0
  2 16  1  0
  3 17  1  6
  4 18  1  0
  4 19  1  0
  5 20  1  1
  6 21  1  0
  6 22  1  0
  7 23  1  0
  7 24  1  0
  8 25  1  6
  9 26  1  0
  9 27  1  0
 10 28  1  0
 10 29  1  0
 13 30  1  0
 13 31  1  0
 13 32  1  0
M  CHG  1   7   1
M  END
$$$$
=
     RDKit          3D

 34 35  0  0  0  0  0  0  0  0999 V2000
   19.5220   15.4770    4.7330 C   0  0  0  0  0  0  0  0  0  0  0  0
   18.6840   15.5710    5.8130 N   0  0  0  0  0  0  0  0  0  0  0  0
   17.4350   15.4790    5.3790 N   0  0  0  0  0  0  0  0  0  0  0  0
   17.4870   15.3200    4.0490 N   0  0  0  0  0  0  0  0  0  0  0  0
   18.7650   15.3060    3.5930 C   0  0  0  0  0  0  0  0  0  0  0  0
   20.9980   15.5620    4.8910 C   0  0  0  0  0  0  0  0  0  0  0  0
   21.4070   16.3040    6.1600 C   0  0  0  0  0  0  0  0  0  0  0  0
   21.3460   15.4280    7.2860 O   0  0  0  0  0  0  0  0  0  0  0  0
   16.2660   15.1740    3.2930 C   0  0  0  0  0  0  0  0  0  0  0  0
   15.2890   14.1460    3.8960 C   0  0  1  0  0  0  0  0  0  0  0  0
   13.8730   14.7200    4.0910 C   0  0  0  0  0  0  0  0  0  0  0  0
   12.8870   13.6590    4.5770 C   0  0  0  0  0  0  0  0  0  0  0  0
   12.8740   12.4440    3.6680 C   0  0  0  0  0  0  0  0  0  0  0  0
   14.2680   11.9200    3.5440 N   0  0  0  0  0  4  0  0  0  0  0  0
   15.2420   12.9110    2.9960 C   0  0  0  0  0  0  0  0  0  0  0  0
   19.1151   15.1863    2.5571 H   0  0  0  0  0  0  0  0  0  0  0  0
   21.4080   14.5421    4.9308 H   0  0  0  0  0  0  0  0  0  0  0  0
   21.3947   16.1236    4.0324 H   0  0  0  0  0  0  0  0  0  0  0  0
   22.4351   16.6784    6.0464 H   0  0  0  0  0  0  0  0  0  0  0  0
   20.7164   17.1447    6.3220 H   0  0  0  0  0  0  0  0  0  0  0  0
   21.3830   15.9598    8.1202 H   0  0  0  0  0  0  0  0  0  0  0  0
   15.7624   16.1511    3.2529 H   0  0  0  0  0  0  0  0  0  0  0  0
   16.5456   14.8075    2.2942 H   0  0  0  0  0  0  0  0  0  0  0  0
   15.6592   13.8743    4.8956 H   0  0  0  0  0  0  0  0  0  0  0  0
   13.9174   15.5302    4.8337 H   0  0  0  0  0  0  0  0  0  0  0  0
   13.5200   15.0913    3.1176 H   0  0  0  0  0  0  0  0  0  0  0  0
   13.1751   13.3426    5.5904 H   0  0  0  0  0  0  0  0  0  0  0  0
   11.8795   14.1005    4.5724 H   0  0  0  0  0  0  0  0  0  0  0  0
   12.2241   11.6676    4.0980 H   0  0  0  0  0  0  0  0  0  0  0  0
   12.4904   12.7238    2.6758 H   0  0  0  0  0  0  0  0  0  0  0  0
   14.5902   11.6318    4.4789 H   0  0  0  0  0  0  0  0  0  0  0  0
   14.2337   11.1354    2.8776 H   0  0  0  0  0  0  0  0  0  0  0  0
   16.2415   12.4538    2.9514 H   0  0  0  0  0  0  0  0  0  0  0  0
   14.9249   13.2104    1.9861 H   0  0  0  0  0  0  0  0  0  0  0  0
  2  1  1  0
  3  2  2  0
  4  3  1  0
  5  4  1  0
  5  1  2  0
  6  1  1  0
  7  6  1  0
  8  7  1  0
  9  4  1  0
 10  9  1  0
 11 10  1  0
 12 11  1  0
 13 12  1  0
 14 13  1  0
 15 14  1  0
 15 10  1  0
  5 16  1  0
  6 17  1  0
  6 18  1  0
  7 19  1  0
  7 20  1  0
  8 21  1  0
  9 22  1  0
  9 23  1  0
 10 24  1  1
 11 25  1  0
 11 26  1  0
 12 27  1  0
 12 28  1  0
 13 29  1  0
 13 30  1  0
 14 31  1  0
 14 32  1  0
 15 33  1  0
 15 34  1  0
M  CHG  1  14   1
M  END
$$$$
=
     RDKit          3D

 25 25  0  0  0  0  0  0  0  0999 V2000
   20.2260   16.1330    5.3940 C   0  0  0  0  0  0  0  0  0  0  0  0
   20.0070   14.9860    6.4210 C   0  0  0  0  0  0  0  0  0  0  0  0
   21.1000   15.5320    7.2220 O   0  0  0  0  0  0  0  0  0  0  0  0
   21.6450   16.1490    6.0170 C   0  0  0  0  0  0  0  0  0  0  0  0
   19.4430   17.3600    5.7770 N   0  0  0  0  0  4  0  0  0  0  0  0
   20.1130   15.7750    3.9220 C   0  0  0  0  0  0  0  0  0  0  0  0
   18.8410   15.0310    3.6370 C   0  0  0  0  0  0  0  0  0  0  0  0
   18.8510   13.8440    3.3230 O   0  0  0  0  0  0  0  0  0  0  0  0
   17.7600   15.8170    3.8200 O   0  0  0  0  0  0  0  0  0  0  0  0
   16.1940   15.7720    5.6670 C   0  0  0  0  0  0  0  0  0  0  0  0
   16.5760   15.1750    4.3260 C   0  0  0  0  0  0  0  0  0  0  0  0
   19.0265   15.0048    6.9193 H   0  0  0  0  0  0  0  0  0  0  0  0
   20.0092   13.9330    6.1029 H   0  0  0  0  0  0  0  0  0  0  0  0
   22.3801   15.5282    5.4838 H   0  0  0  0  0  0  0  0  0  0  0  0
   22.2254   17.0816    6.0740 H   0  0  0  0  0  0  0  0  0  0  0  0
   19.3973   17.4316    6.8035 H   0  0  0  0  0  0  0  0  0  0  0  0
   19.9069   18.1965    5.3948 H   0  0  0  0  0  0  0  0  0  0  0  0
   18.4890   17.2916    5.3948 H   0  0  0  0  0  0  0  0  0  0  0  0
   20.1283   16.6996    3.3263 H   0  0  0  0  0  0  0  0  0  0  0  0
   20.9610   15.1266    3.6566 H   0  0  0  0  0  0  0  0  0  0  0  0
   16.5958   15.1440    6.4758 H   0  0  0  0  0  0  0  0  0  0  0  0
   16.6111   16.7866    5.7489 H   0  0  0  0  0  0  0  0  0  0  0  0
   15.0980   15.8184    5.7489 H   0  0  0  0  0  0  0  0  0  0  0  0
   16.7692   14.0990    4.4482 H   0  0  0  0  0  0  0  0  0  0  0  0
   15.7508   15.3279    3.6149 H   0  0  0  0  0  0  0  0  0  0  0  0
  2  1  1  0
  3  2  1  0
  4  1  1  0
  4  3  1  0
  5  1  1  0
  6  1  1  0
  7  6  1  0
  8  7  2  0
  9  7  1  0
 11 10  1  0
 11  9  1  0
  2 12  1  0
  2 13  1  0
  4 14  1  0
  4 15  1  0
  5 16  1  0
  5 17  1  0
  5 18  1  0
  6 19  1  0
  6 20  1  0
 10 21  1  0
 10 22  1  0
 10 23  1  0
 11 24  1  0
 11 25  1  0
M  CHG  1   5   1
M  END
$$$$
=
     RDKit          3D

 80 79  0  0  0  0  0  0  0  0999 V2000
   27.7120   26.9320   13.9270 O   0  0  0  0  0  0  0  0  0  0  0  0
   26.9620   27.5510   14.9760 C   0  0  0  0  0  0  0  0  0  0  0  0
   27.2000   26.9540   16.3660 C   0  0  0  0  0  0  0  0  0  0  0  0
   25.9890   26.3730   16.8530 O   0  0  0  0  0  0  0  0  0  0  0  0
   24.8150   27.0800   16.4490 C   0  0  0  0  0  0  0  0  0  0  0  0
   23.8020   27.1690   17.5970 C   0  0  0  0  0  0  0  0  0  0  0  0
   22.9100   26.0470   17.6200 O   0  0  0  0  0  0  0  0  0  0  0  0
   22.3000   25.7770   16.3590 C   0  0  0  0  0  0  0  0  0  0  0  0
   21.3100   24.6190   16.4850 C   0  0  0  0  0  0  0  0  0  0  0  0
   20.9220   24.4690   17.8490 O   0  0  0  0  0  0  0  0  0  0  0  0
   19.8070   23.6000   18.0360 C   0  0  0  0  0  0  0  0  0  0  0  0
   20.1970   22.2710   18.6860 C   0  0  0  0  0  0  0  0  0  0  0  0
   20.0540   21.1640   17.7890 O   0  0  0  0  0  0  0  0  0  0  0  0
   20.1700   21.5150   16.4150 C   0  0  0  0  0  0  0  0  0  0  0  0
   21.1910   20.5690   15.7780 C   0  0  0  0  0  0  0  0  0  0  0  0
   22.5740   20.8990   16.2020 N   0  0  0  0  0  4  0  0  0  0  0  0
   27.6420   25.5100   13.8460 C   0  0  0  0  0  0  0  0  0  0  0  0
   28.8700   24.8400   13.2120 C   0  0  0  0  0  0  0  0  0  0  0  0
   28.5700   23.6680   12.4530 O   0  0  0  0  0  0  0  0  0  0  0  0
   27.9660   23.9490   11.1910 C   0  0  0  0  0  0  0  0  0  0  0  0
   26.6690   23.1510   11.0610 C   0  0  0  0  0  0  0  0  0  0  0  0
   25.6090   23.9490   10.5330 O   0  0  0  0  0  0  0  0  0  0  0  0
   24.6340   24.3030   11.5220 C   0  0  0  0  0  0  0  0  0  0  0  0
   24.7050   25.8090   11.7890 C   0  0  0  0  0  0  0  0  0  0  0  0
   23.5400   26.5250   11.3620 O   0  0  0  0  0  0  0  0  0  0  0  0
   22.5210   26.7170   12.3430 C   0  0  0  0  0  0  0  0  0  0  0  0
   21.2780   25.8510   12.1390 C   0  0  0  0  0  0  0  0  0  0  0  0
   20.9550   25.8220   10.7480 O   0  0  0  0  0  0  0  0  0  0  0  0
   19.5500   25.8430   10.4870 C   0  0  0  0  0  0  0  0  0  0  0  0
   19.0530   24.6780    9.6170 C   0  0  0  0  0  0  0  0  0  0  0  0
   19.9230   23.5460    9.6020 O   0  0  0  0  0  0  0  0  0  0  0  0
   19.6560   22.5850   10.6210 C   0  0  0  0  0  0  0  0  0  0  0  0
   17.4330   21.2220   10.0600 C   0  0  0  0  0  0  0  0  0  0  0  0
   18.4360   21.8320   10.3110 C   0  0  0  0  0  0  0  0  0  0  0  0
   27.2329   28.6166   15.0090 H   0  0  0  0  0  0  0  0  0  0  0  0
   25.9004   27.3834   14.7417 H   0  0  0  0  0  0  0  0  0  0  0  0
   27.9781   26.1791   16.3030 H   0  0  0  0  0  0  0  0  0  0  0  0
   27.5257   27.7486   17.0534 H   0  0  0  0  0  0  0  0  0  0  0  0
   25.0969   28.0970   16.1389 H   0  0  0  0  0  0  0  0  0  0  0  0
   24.3497   26.5363   15.6136 H   0  0  0  0  0  0  0  0  0  0  0  0
   24.3494   27.2060   18.5504 H   0  0  0  0  0  0  0  0  0  0  0  0
   23.1992   28.0767   17.4460 H   0  0  0  0  0  0  0  0  0  0  0  0
   21.7660   26.6749   16.0146 H   0  0  0  0  0  0  0  0  0  0  0  0
   23.0815   25.5022   15.6353 H   0  0  0  0  0  0  0  0  0  0  0  0
   20.4209   24.8289   15.8722 H   0  0  0  0  0  0  0  0  0  0  0  0
   21.7863   23.6909   16.1360 H   0  0  0  0  0  0  0  0  0  0  0  0
   19.0718   24.1045   18.6801 H   0  0  0  0  0  0  0  0  0  0  0  0
   19.3909   23.3748   17.0429 H   0  0  0  0  0  0  0  0  0  0  0  0
   21.2465   22.3303   19.0100 H   0  0  0  0  0  0  0  0  0  0  0  0
   19.5221   22.1026   19.5381 H   0  0  0  0  0  0  0  0  0  0  0  0
   19.1955   21.4052   15.9166 H   0  0  0  0  0  0  0  0  0  0  0  0
   20.4956   22.5605   16.3104 H   0  0  0  0  0  0  0  0  0  0  0  0
   20.9604   19.5371   16.0813 H   0  0  0  0  0  0  0  0  0  0  0  0
   21.1289   20.6782   14.6852 H   0  0  0  0  0  0  0  0  0  0  0  0
   22.6241   20.9110   17.2307 H   0  0  0  0  0  0  0  0  0  0  0  0
   23.2242   20.1895   15.8348 H   0  0  0  0  0  0  0  0  0  0  0  0
   22.8338   21.8256   15.8348 H   0  0  0  0  0  0  0  0  0  0  0  0
   27.5246   25.1145   14.8657 H   0  0  0  0  0  0  0  0  0  0  0  0
   26.7898   25.2787   13.1901 H   0  0  0  0  0  0  0  0  0  0  0  0
   29.3547   25.5683   12.5452 H   0  0  0  0  0  0  0  0  0  0  0  0
   29.5203   24.5226   14.0405 H   0  0  0  0  0  0  0  0  0  0  0  0
   27.7441   25.0241   11.1214 H   0  0  0  0  0  0  0  0  0  0  0  0
   28.6552   23.6650   10.3820 H   0  0  0  0  0  0  0  0  0  0  0  0
   26.8414   22.2974   10.3890 H   0  0  0  0  0  0  0  0  0  0  0  0
   26.3743   22.8094   12.0642 H   0  0  0  0  0  0  0  0  0  0  0  0
   23.6296   24.0418   11.1573 H   0  0  0  0  0  0  0  0  0  0  0  0
   24.8389   23.7544   12.4532 H   0  0  0  0  0  0  0  0  0  0  0  0
   24.8311   25.9644   12.8706 H   0  0  0  0  0  0  0  0  0  0  0  0
   25.5532   26.1990   11.2073 H   0  0  0  0  0  0  0  0  0  0  0  0
   22.9454   26.4828   13.3305 H   0  0  0  0  0  0  0  0  0  0  0  0
   22.1930   27.7633   12.2549 H   0  0  0  0  0  0  0  0  0  0  0  0
   21.4785   24.8288   12.4925 H   0  0  0  0  0  0  0  0  0  0  0  0
   20.4351   26.2706   12.7077 H   0  0  0  0  0  0  0  0  0  0  0  0
   19.0197   25.8050   11.4500 H   0  0  0  0  0  0  0  0  0  0  0  0
   19.3470   26.7663    9.9246 H   0  0  0  0  0  0  0  0  0  0  0  0
   18.0735   24.3552    9.9996 H   0  0  0  0  0  0  0  0  0  0  0  0
   19.0046   25.0531    8.5841 H   0  0  0  0  0  0  0  0  0  0  0  0
   20.5036   21.8875   10.6916 H   0  0  0  0  0  0  0  0  0  0  0  0
   19.5161   23.1104   11.5772 H   0  0  0  0  0  0  0  0  0  0  0  0
   16.5139   20.6630    9.8300 H   0  0  0  0  0  0  0  0  0  0  0  0
  2  1  1  0
  3  2  1  0
  4  3  1  0
  5  4  1  0
  6  5  1  0
  7  6  1  0
  8  7  1  0
  9  8  1  0
 10  9  1  0
 11 10  1  0
 12 11  1  0
 13 12  1  0
 14 13  1  0
 15 14  1  0
 16 15  1  0
 17  1  1  0
 18 17  1  0
 19 18  1  0
 20 19  1  0
 21 20  1  0
 22 21  1  0
 23 22  1  0
 24 23  1  0
 25 24  1  0
 26 25  1  0
 27 26  1  0
 28 27  1  0
 29 28  1  0
 30 29  1  0
 31 30  1  0
 32 31  1  0
 34 33  3  0
 34 32  1  0
  2 35  1  0
  2 36  1  0
  3 37  1  0
  3 38  1  0
  5 39  1  0
  5 40  1  0
  6 41  1  0
  6 42  1  0
  8 43  1  0
  8 44  1  0
  9 45  1  0
  9 46  1  0
 11 47  1  0
 11 48  1  0
 12 49  1  0
 12 50  1  0
 14 51  1  0
 14 52  1  0
 15 53  1  0
 15 54  1  0
 16 55  1  0
 16 56  1  0
 16 57  1  0
 17 58  1  0
 17 59  1  0
 18 60  1  0
 18 61  1  0
 20 62  1  0
 20 63  1  0
 21 64  1  0
 21 65  1  0
 23 66  1  0
 23 67  1  0
 24 68  1  0
 24 69  1  0
 26 70  1  0
 26 71  1  0
 27 72  1  0
 27 73  1  0
 29 74  1  0
 29 75  1  0
 30 76  1  0
 30 77  1  0
 32 78  1  0
 32 79  1  0
 33 80  1  0
M  CHG  1  16   1
M  END
$$$$
=
     RDKit          3D

 50 51  0  0  0  0  0  0  0  0999 V2000
   17.8880   15.1400    4.5190 N   0  0  1  0  0  4  0  0  0  0  0  0
   18.7060   16.4520    4.4540 C   0  0  1  0  0  0  0  0  0  0  0  0
   18.2840   17.4410    5.5550 C   0  0  0  0  0  0  0  0  0  0  0  0
   19.2960   18.5890    5.5210 C   0  0  0  0  0  0  0  0  0  0  0  0
   20.8170   17.8710    4.9160 S   0  0  0  0  0  6  0  0  0  0  0  0
   21.8020   17.8310    5.9660 O   0  0  0  0  0  0  0  0  0  0  0  0
   21.0590   18.3700    3.5820 O   0  0  0  0  0  0  0  0  0  0  0  0
   20.1920   16.2240    4.6990 C   0  0  0  0  0  0  0  0  0  0  0  0
   16.4400   15.3310    3.9300 C   0  0  0  0  0  0  0  0  0  0  0  0
   15.2790   14.9380    4.8370 C   0  0  0  0  0  0  0  0  0  0  0  0
   15.3130   15.1770    6.0480 O   0  0  0  0  0  0  0  0  0  0  0  0
   11.6730   14.0640    4.1240 C   0  0  0  0  0  0  0  0  0  0  0  0
   12.8310   14.6680    4.6370 C   0  0  0  0  0  0  0  0  0  0  0  0
   14.1030   14.2390    4.2560 C   0  0  0  0  0  0  0  0  0  0  0  0
   14.2280   13.1740    3.3650 C   0  0  0  0  0  0  0  0  0  0  0  0
   13.0750   12.5660    2.8480 C   0  0  0  0  0  0  0  0  0  0  0  0
   11.7920   13.0010    3.2130 C   0  0  0  0  0  0  0  0  0  0  0  0
    9.8190   14.0020    5.6590 C   0  0  0  0  0  0  0  0  0  0  0  0
   10.5410   14.6520    4.6200 O   0  0  0  0  0  0  0  0  0  0  0  0
   10.6480   12.4500    2.7120 O   0  0  0  0  0  0  0  0  0  0  0  0
   10.7420   11.3250    1.8460 C   0  0  0  0  0  0  0  0  0  0  0  0
   18.6650   13.8850    4.0540 C   0  0  0  0  0  0  0  0  0  0  0  0
   17.9090   12.9460    3.0680 C   0  0  0  0  0  0  0  0  0  0  0  0
   18.4150   11.5450    3.1240 N   0  0  0  0  0  4  0  0  0  0  0  0
   17.7336   14.9205    5.5134 H   0  0  0  0  0  0  0  0  0  0  0  0
   18.5159   16.8426    3.4434 H   0  0  0  0  0  0  0  0  0  0  0  0
   17.2713   17.8215    5.3559 H   0  0  0  0  0  0  0  0  0  0  0  0
   18.2683   16.9544    6.5414 H   0  0  0  0  0  0  0  0  0  0  0  0
   18.9513   19.3849    4.8444 H   0  0  0  0  0  0  0  0  0  0  0  0
   19.4276   19.0451    6.5133 H   0  0  0  0  0  0  0  0  0  0  0  0
   20.6643   15.7323    3.8358 H   0  0  0  0  0  0  0  0  0  0  0  0
   20.3943   15.5666    5.5574 H   0  0  0  0  0  0  0  0  0  0  0  0
   16.3203   16.3945    3.6758 H   0  0  0  0  0  0  0  0  0  0  0  0
   16.3827   14.6465    3.0708 H   0  0  0  0  0  0  0  0  0  0  0  0
   12.7341   15.4965    5.3541 H   0  0  0  0  0  0  0  0  0  0  0  0
   15.2242   12.8131    3.0696 H   0  0  0  0  0  0  0  0  0  0  0  0
   13.1787   11.7298    2.1409 H   0  0  0  0  0  0  0  0  0  0  0  0
   10.1959   14.3413    6.6351 H   0  0  0  0  0  0  0  0  0  0  0  0
    8.7505   14.2485    5.5727 H   0  0  0  0  0  0  0  0  0  0  0  0
    9.9523   12.9135    5.5727 H   0  0  0  0  0  0  0  0  0  0  0  0
   10.8188   10.4061    2.4457 H   0  0  0  0  0  0  0  0  0  0  0  0
    9.8449   11.2748    1.2114 H   0  0  0  0  0  0  0  0  0  0  0  0
   11.6350   11.4244    1.2114 H   0  0  0  0  0  0  0  0  0  0  0  0
   19.5867   14.2233    3.5580 H   0  0  0  0  0  0  0  0  0  0  0  0
   18.8382   13.2879    4.9614 H   0  0  0  0  0  0  0  0  0  0  0  0
   16.8400   12.9471    3.3273 H   0  0  0  0  0  0  0  0  0  0  0  0
   18.0743   13.3240    2.0483 H   0  0  0  0  0  0  0  0  0  0  0  0
   18.5192   11.2566    4.1073 H   0  0  0  0  0  0  0  0  0  0  0  0
   17.7468   10.9195    2.6517 H   0  0  0  0  0  0  0  0  0  0  0  0
   19.3287   11.4908    2.6517 H   0  0  0  0  0  0  0  0  0  0  0  0
  2  1  1  0
  3  2  1  0
  4  3  1  0
  5  4  1  0
  6  5  2  0
  7  5  2  0
  8  5  1  0
  8  2  1  0
  9  1  1  0
 10  9  1  0
 11 10  2  0
 13 12  2  0
 14 13  1  0
 14 10  1  0
 15 14  2  0
 16 15  1  0
 17 16  2  0
 17 12  1  0
 19 18  1  0
 19 12  1  0
 20 17  1  0
 21 20  1  0
 22  1  1  0
 23 22  1  0
 24 23  1  0
  1 25  1  1
  2 26  1  6
  3 27  1  0
  3 28  1  0
  4 29  1  0
  4 30  1  0
  8 31  1  0
  8 32  1  0
  9 33  1  0
  9 34  1  0
 13 35  1  0
 15 36  1  0
 16 37  1  0
 18 38  1  0
 18 39  1  0
 18 40  1  0
 21 41  1  0
 21 42  1  0
 21 43  1  0
 22 44  1  0
 22 45  1  0
 23 46  1  0
 23 47  1  0
 24 48  1  0
 24 49  1  0
 24 50  1  0
M  CHG  2   1   1  24   1
M  END
$$$$
=
     RDKit          3D

 36 37  0  0  0  0  0  0  0  0999 V2000
   16.0700   14.5130    3.5540 N   0  0  0  0  0  0  0  0  0  0  0  0
   15.1710   15.3950    4.1380 C   0  0  0  0  0  0  0  0  0  0  0  0
   13.9490   15.3430    3.9970 O   0  0  0  0  0  0  0  0  0  0  0  0
   15.7050   16.3650    4.9290 N   0  0  0  0  0  0  0  0  0  0  0  0
   16.9890   16.3970    5.3690 C   0  0  0  0  0  0  0  0  0  0  0  0
   17.3270   17.1440    6.2860 O   0  0  0  0  0  0  0  0  0  0  0  0
   17.9510   15.4680    4.6820 C   0  0  0  0  0  0  0  0  0  0  0  0
   17.4370   14.5700    3.8020 C   0  0  0  0  0  0  0  0  0  0  0  0
   19.3350   15.5290    4.9930 N   0  0  0  0  0  0  0  0  0  0  0  0
   20.1480   16.6930    4.5400 C   0  0  0  0  0  0  0  0  0  0  0  0
   20.7400   17.4670    5.7260 C   0  0  0  0  0  0  0  0  0  0  0  0
   21.6200   16.6660    6.5320 O   0  0  0  0  0  0  0  0  0  0  0  0
   21.2340   15.2850    6.5850 C   0  0  0  0  0  0  0  0  0  0  0  0
   19.7340   15.0560    6.3500 C   0  0  0  0  0  0  0  0  0  0  0  0
   18.3250   13.7180    3.1420 N   0  0  0  0  0  0  0  0  0  0  0  0
   15.5120   13.4360    2.7270 C   0  0  0  0  0  0  0  0  0  0  0  0
   13.6270   12.0300    3.7200 C   0  0  0  0  0  0  0  0  0  0  0  0
   15.1280   12.1830    3.5240 C   0  0  0  0  0  0  0  0  0  0  0  0
   15.0859   17.1362    5.2168 H   0  0  0  0  0  0  0  0  0  0  0  0
   20.9698   16.3289    3.9059 H   0  0  0  0  0  0  0  0  0  0  0  0
   19.4903   17.3738    3.9798 H   0  0  0  0  0  0  0  0  0  0  0  0
   21.3052   18.3269    5.3372 H   0  0  0  0  0  0  0  0  0  0  0  0
   19.9026   17.7835    6.3653 H   0  0  0  0  0  0  0  0  0  0  0  0
   21.7944   14.7375    5.8129 H   0  0  0  0  0  0  0  0  0  0  0  0
   21.4598   14.9259    7.5999 H   0  0  0  0  0  0  0  0  0  0  0  0
   19.1610   15.6096    7.1084 H   0  0  0  0  0  0  0  0  0  0  0  0
   19.5246   13.9787    6.4249 H   0  0  0  0  0  0  0  0  0  0  0  0
   19.3346   13.7742    3.3382 H   0  0  0  0  0  0  0  0  0  0  0  0
   17.9704   13.0334    2.4590 H   0  0  0  0  0  0  0  0  0  0  0  0
   14.6115   13.8164    2.2226 H   0  0  0  0  0  0  0  0  0  0  0  0
   16.2964   13.1371    2.0161 H   0  0  0  0  0  0  0  0  0  0  0  0
   13.3982   12.0067    4.7957 H   0  0  0  0  0  0  0  0  0  0  0  0
   13.1077   12.8799    3.2530 H   0  0  0  0  0  0  0  0  0  0  0  0
   13.2899   11.0928    3.2530 H   0  0  0  0  0  0  0  0  0  0  0  0
   15.6053   12.2389    4.5135 H   0  0  0  0  0  0  0  0  0  0  0  0
   15.4712   11.3120    2.9464 H   0  0  0  0  0  0  0  0  0  0  0  0
  2  1  1  0
  3  2  2  0
  4  2  1  0
  5  4  1  0
  6  5  2  0
  7  5  1  0
  8  1  1  0
  8  7  2  0
  9  7  1  0
 10  9  1  0
 11 10  1  0
 12 11  1  0
 13 12  1  0
 14  9  1  0
 14 13  1  0
 15  8  1  0
 16  1  1  0
 18 17  1  0
 18 16  1  0
  4 19  1  0
 10 20  1  0
 10 21  1  0
 11 22  1  0
 11 23  1  0
 13 24  1  0
 13 25  1  0
 14 26  1  0
 14 27  1  0
 15 28  1  0
 15 29  1  0
 16 30  1  0
 16 31  1  0
 17 32  1  0
 17 33  1  0
 17 34  1  0
 18 35  1  0
 18 36  1  0
M  END
$$$$
=
     RDKit          3D

 49 51  0  0  0  0  0  0  0  0999 V2000
   15.6870   15.3060    4.5360 C   0  0  0  0  0  0  0  0  0  0  0  0
   14.4020   14.8330    4.8410 C   0  0  0  0  0  0  0  0  0  0  0  0
   13.8690   13.7090    4.1990 C   0  0  0  0  0  0  0  0  0  0  0  0
   14.6420   13.0650    3.2300 C   0  0  0  0  0  0  0  0  0  0  0  0
   15.9180   13.5420    2.9090 C   0  0  0  0  0  0  0  0  0  0  0  0
   16.4490   14.6750    3.5400 C   0  0  0  0  0  0  0  0  0  0  0  0
   16.7310   16.2070    6.4750 C   0  0  0  0  0  0  0  0  0  0  0  0
   16.0230   16.4210    5.2580 O   0  0  0  0  0  0  0  0  0  0  0  0
   12.4760   13.2470    4.5170 C   0  0  0  0  0  0  0  0  0  0  0  0
   11.4860   13.9810    3.6780 N   0  0  0  0  0  4  0  0  0  0  0  0
   10.0660   13.5600    3.8400 C   0  0  0  0  0  0  0  0  0  0  0  0
    9.5570   12.7930    2.6680 C   0  0  0  0  0  0  0  0  0  0  0  0
   10.1360   11.7140    2.0260 C   0  0  0  0  0  0  0  0  0  0  0  0
    9.3470   11.2500    0.9330 C   0  0  0  0  0  0  0  0  0  0  0  0
    8.1910   11.9830    0.7810 C   0  0  0  0  0  0  0  0  0  0  0  0
    8.0590   13.2200    1.9510 S   0  0  0  0  0  0  0  0  0  0  0  0
   17.6750   15.2030    3.2480 O   0  0  0  0  0  0  0  0  0  0  0  0
   18.8270   14.7760    3.9870 C   0  0  0  0  0  0  0  0  0  0  0  0
   19.7460   15.9110    4.3990 C   0  0  0  0  0  0  0  0  0  0  0  0
   19.9560   16.9950    3.5270 C   0  0  0  0  0  0  0  0  0  0  0  0
   20.8080   18.0440    3.8730 C   0  0  0  0  0  0  0  0  0  0  0  0
   21.4750   18.0210    5.0920 C   0  0  0  0  0  0  0  0  0  0  0  0
   21.2990   16.9460    5.9600 C   0  0  0  0  0  0  0  0  0  0  0  0
   20.4510   15.8770    5.6230 C   0  0  0  0  0  0  0  0  0  0  0  0
   20.3140   14.7310    6.5890 C   0  0  0  0  0  0  0  0  0  0  0  0
   13.8012   15.3558    5.5998 H   0  0  0  0  0  0  0  0  0  0  0  0
   14.2452   12.1772    2.7159 H   0  0  0  0  0  0  0  0  0  0  0  0
   16.5148   13.0182    2.1478 H   0  0  0  0  0  0  0  0  0  0  0  0
   16.0649   16.4083    7.3270 H   0  0  0  0  0  0  0  0  0  0  0  0
   17.0776   15.1640    6.5190 H   0  0  0  0  0  0  0  0  0  0  0  0
   17.5973   16.8834    6.5190 H   0  0  0  0  0  0  0  0  0  0  0  0
   12.3956   12.1688    4.3143 H   0  0  0  0  0  0  0  0  0  0  0  0
   12.2652   13.4464    5.5780 H   0  0  0  0  0  0  0  0  0  0  0  0
   11.5490   14.9812    3.9159 H   0  0  0  0  0  0  0  0  0  0  0  0
   11.7328   13.7686    2.7008 H   0  0  0  0  0  0  0  0  0  0  0  0
    9.9865   12.9273    4.7363 H   0  0  0  0  0  0  0  0  0  0  0  0
    9.4571   14.4716    3.9307 H   0  0  0  0  0  0  0  0  0  0  0  0
   11.0950   11.2652    2.3242 H   0  0  0  0  0  0  0  0  0  0  0  0
    9.6285   10.4055    0.2868 H   0  0  0  0  0  0  0  0  0  0  0  0
    7.4413   11.7940   -0.0015 H   0  0  0  0  0  0  0  0  0  0  0  0
   18.4842   14.2600    4.8960 H   0  0  0  0  0  0  0  0  0  0  0  0
   19.4077   14.1186    3.3232 H   0  0  0  0  0  0  0  0  0  0  0  0
   19.4396   17.0157    2.5560 H   0  0  0  0  0  0  0  0  0  0  0  0
   20.9516   18.8879    3.1822 H   0  0  0  0  0  0  0  0  0  0  0  0
   22.1411   18.8507    5.3710 H   0  0  0  0  0  0  0  0  0  0  0  0
   21.8311   16.9335    6.9227 H   0  0  0  0  0  0  0  0  0  0  0  0
   20.3596   15.1127    7.6196 H   0  0  0  0  0  0  0  0  0  0  0  0
   19.3493   14.2280    6.4267 H   0  0  0  0  0  0  0  0  0  0  0  0
   21.1329   14.0147    6.4267 H   0  0  0  0  0  0  0  0  0  0  0  0
  2  1  2  0
  3  2  1  0
  4  3  2  0
  5  4  1  0
  6  5  2  0
  6  1  1  0
  8  1  1  0
  8  7  1  0
  9  3  1  0
 10  9  1  0
 11 10  1  0
 12 11  1  0
 13 12  2  0
 14 13  1  0
 15 14  2  0
 16 15  1  0
 16 12  1  0
 17  6  1  0
 18 17  1  0
 19 18  1  0
 20 19  2  0
 21 20  1  0
 22 21  2  0
 23 22  1  0
 24 19  1  0
 24 23  2  0
 25 24  1  0
  2 26  1  0
  4 27  1  0
  5 28  1  0
  7 29  1  0
  7 30  1  0
  7 31  1  0
  9 32  1  0
  9 33  1  0
 10 34  1  0
 10 35  1  0
 11 36  1  0
 11 37  1  0
 13 38  1  0
 14 39  1  0
 15 40  1  0
 18 41  1  0
 18 42  1  0
 20 43  1  0
 21 44  1  0
 22 45  1  0
 23 46  1  0
 25 47  1  0
 25 48  1  0
 25 49  1  0
M  CHG  1  10   1
M  END
$$$$
=
     RDKit          3D

 38 39  0  0  0  0  0  0  0  0999 V2000
   22.6160   17.7770    5.8710 C   0  0  0  0  0  0  0  0  0  0  0  0
   21.2090   17.8110    5.2950 C   0  0  2  0  0  0  0  0  0  0  0  0
   20.3520   16.6450    5.8350 C   0  0  0  0  0  0  0  0  0  0  0  0
   19.3990   16.1340    4.7370 N   0  0  2  0  0  4  0  0  0  0  0  0
   18.8590   17.3380    3.9430 C   0  0  0  0  0  0  0  0  0  0  0  0
   20.0460   18.0240    3.2250 C   0  0  1  0  0  0  0  0  0  0  0  0
   21.2960   17.7000    3.8670 O   0  0  0  0  0  0  0  0  0  0  0  0
   20.1650   17.5630    1.7770 C   0  0  0  0  0  0  0  0  0  0  0  0
   18.3090   15.1990    5.2060 C   0  0  0  0  0  0  0  0  0  0  0  0
   16.9270   15.4370    4.5310 C   0  0  2  0  0  0  0  0  0  0  0  0
   15.7650   15.5550    5.5110 C   0  0  0  0  0  0  0  0  0  0  0  0
   14.5580   15.2060    4.6610 C   0  0  0  0  0  0  0  0  0  0  0  0
   15.0320   14.0170    3.8500 C   0  0  0  0  0  0  0  0  0  0  0  0
   16.5050   14.2940    3.6230 N   0  0  0  0  0  4  0  0  0  0  0  0
   22.5625   17.7783    6.9697 H   0  0  0  0  0  0  0  0  0  0  0  0
   23.1299   16.8662    5.5300 H   0  0  0  0  0  0  0  0  0  0  0  0
   23.1733   18.6619    5.5300 H   0  0  0  0  0  0  0  0  0  0  0  0
   20.7319   18.7571    5.5903 H   0  0  0  0  0  0  0  0  0  0  0  0
   21.0127   15.8252    6.1534 H   0  0  0  0  0  0  0  0  0  0  0  0
   19.7579   17.0011    6.6896 H   0  0  0  0  0  0  0  0  0  0  0  0
   19.9545   15.5286    4.1159 H   0  0  0  0  0  0  0  0  0  0  0  0
   18.1247   16.9934    3.2000 H   0  0  0  0  0  0  0  0  0  0  0  0
   18.3679   18.0491    4.6236 H   0  0  0  0  0  0  0  0  0  0  0  0
   19.8478   19.1050    3.2705 H   0  0  0  0  0  0  0  0  0  0  0  0
   20.4399   16.4982    1.7526 H   0  0  0  0  0  0  0  0  0  0  0  0
   19.2009   17.7046    1.2667 H   0  0  0  0  0  0  0  0  0  0  0  0
   20.9401   18.1536    1.2667 H   0  0  0  0  0  0  0  0  0  0  0  0
   18.6242   14.1672    4.9913 H   0  0  0  0  0  0  0  0  0  0  0  0
   18.1717   15.3891    6.2807 H   0  0  0  0  0  0  0  0  0  0  0  0
   17.0995   16.3773    3.9869 H   0  0  0  0  0  0  0  0  0  0  0  0
   15.8786   14.8464    6.3447 H   0  0  0  0  0  0  0  0  0  0  0  0
   15.6922   16.5492    5.9761 H   0  0  0  0  0  0  0  0  0  0  0  0
   13.6979   14.9351    5.2910 H   0  0  0  0  0  0  0  0  0  0  0  0
   14.2163   16.0439    4.0355 H   0  0  0  0  0  0  0  0  0  0  0  0
   14.8917   13.0805    4.4098 H   0  0  0  0  0  0  0  0  0  0  0  0
   14.4737   13.8950    2.9101 H   0  0  0  0  0  0  0  0  0  0  0  0
   17.0551   13.4522    3.8458 H   0  0  0  0  0  0  0  0  0  0  0  0
   16.6685   14.5473    2.6381 H   0  0  0  0  0  0  0  0  0  0  0  0
  2  1  1  0
  3  2  1  0
  4  3  1  0
  5  4  1  0
  6  5  1  0
  7  6  1  0
  7  2  1  0
  8  6  1  0
  9  4  1  0
 10  9  1  0
 11 10  1  0
 12 11  1  0
 13 12  1  0
 14 13  1  0
 14 10  1  0
  1 15  1  0
  1 16  1  0
  1 17  1  0
  2 18  1  6
  3 19  1  0
  3 20  1  0
  4 21  1  6
  5 22  1  0
  5 23  1  0
  6 24  1  6
  8 25  1  0
  8 26  1  0
  8 27  1  0
  9 28  1  0
  9 29  1  0
 10 30  1  6
 11 31  1  0
 11 32  1  0
 12 33  1  0
 12 34  1  0
 13 35  1  0
 13 36  1  0
 14 37  1  0
 14 38  1  0
M  CHG  2   4   1  14   1
M  END
$$$$
=
     RDKit          3D

 32 32  0  0  0  0  0  0  0  0999 V2000
   17.9000   14.5380    3.5290 C   0  0  0  0  0  0  0  0  0  0  0  0
   18.7760   13.6940    3.3200 O   0  0  0  0  0  0  0  0  0  0  0  0
   16.4570   14.1590    3.5390 C   0  0  0  0  0  0  0  0  0  0  0  0
   15.4710   14.9370    4.1600 C   0  0  0  0  0  0  0  0  0  0  0  0
   14.1340   14.5230    4.1270 C   0  0  0  0  0  0  0  0  0  0  0  0
   13.7880   13.3450    3.4760 C   0  0  0  0  0  0  0  0  0  0  0  0
   14.7520   12.5660    2.8540 C   0  0  0  0  0  0  0  0  0  0  0  0
   16.0890   12.9710    2.8820 C   0  0  0  0  0  0  0  0  0  0  0  0
   12.5070   12.9590    3.4500 F   0  0  0  0  0  0  0  0  0  0  0  0
   18.3370   15.9870    3.7670 C   0  0  2  0  0  0  0  0  0  0  0  0
   19.6190   16.2260    2.9660 N   0  0  0  0  0  4  0  0  0  0  0  0
   19.5940   17.4210    2.0830 C   0  0  0  0  0  0  0  0  0  0  0  0
   18.6470   16.2230    5.2510 C   0  0  0  0  0  0  0  0  0  0  0  0
   20.3160   14.8200    6.5180 C   0  0  0  0  0  0  0  0  0  0  0  0
   20.1260   16.0090    5.5880 C   0  0  0  0  0  0  0  0  0  0  0  0
   15.7467   15.8707    4.6721 H   0  0  0  0  0  0  0  0  0  0  0  0
   13.3578   15.1299    4.6161 H   0  0  0  0  0  0  0  0  0  0  0  0
   14.4660   11.6354    2.3420 H   0  0  0  0  0  0  0  0  0  0  0  0
   16.8572   12.3580    2.3880 H   0  0  0  0  0  0  0  0  0  0  0  0
   17.5297   16.6674    3.4583 H   0  0  0  0  0  0  0  0  0  0  0  0
   20.3962   16.3375    3.6326 H   0  0  0  0  0  0  0  0  0  0  0  0
   19.7266   15.4113    2.3450 H   0  0  0  0  0  0  0  0  0  0  0  0
   19.5749   18.3319    2.6993 H   0  0  0  0  0  0  0  0  0  0  0  0
   20.4922   17.4266    1.4481 H   0  0  0  0  0  0  0  0  0  0  0  0
   18.6963   17.3890    1.4481 H   0  0  0  0  0  0  0  0  0  0  0  0
   18.3739   17.2573    5.5073 H   0  0  0  0  0  0  0  0  0  0  0  0
   18.0651   15.4924    5.8320 H   0  0  0  0  0  0  0  0  0  0  0  0
   20.2618   15.1595    7.5629 H   0  0  0  0  0  0  0  0  0  0  0  0
   19.5249   14.0787    6.3317 H   0  0  0  0  0  0  0  0  0  0  0  0
   21.2987   14.3622    6.3317 H   0  0  0  0  0  0  0  0  0  0  0  0
   20.6829   15.8278    4.6568 H   0  0  0  0  0  0  0  0  0  0  0  0
   20.4995   16.9100    6.0966 H   0  0  0  0  0  0  0  0  0  0  0  0
  2  1  2  0
  3  1  1  0
  4  3  2  0
  5  4  1  0
  6  5  2  0
  7  6  1  0
  8  7  2  0
  8  3  1  0
  9  6  1  0
 10  1  1  0
 11 10  1  0
 12 11  1  0
 13 10  1  0
 15 13  1  0
 15 14  1  0
  4 16  1  0
  5 17  1  0
  7 18  1  0
  8 19  1  0
 10 20  1  6
 11 21  1  0
 11 22  1  0
 12 23  1  0
 12 24  1  0
 12 25  1  0
 13 26  1  0
 13 27  1  0
 14 28  1  0
 14 29  1  0
 14 30  1  0
 15 31  1  0
 15 32  1  0
M  CHG  1  11   1
M  END
$$$$
=
     RDKit          3D

 39 39  0  0  0  0  0  0  0  0999 V2000
   16.8560   15.5100    4.2160 C   0  0  2  0  0  0  0  0  0  0  0  0
   15.7990   14.5100    3.7900 C   0  0  0  0  0  0  0  0  0  0  0  0
   14.4450   14.6700    4.1340 C   0  0  0  0  0  0  0  0  0  0  0  0
   13.5000   13.7110    3.7640 C   0  0  0  0  0  0  0  0  0  0  0  0
   13.8930   12.5820    3.0510 C   0  0  0  0  0  0  0  0  0  0  0  0
   15.2300   12.4060    2.7060 C   0  0  0  0  0  0  0  0  0  0  0  0
   16.1780   13.3620    3.0750 C   0  0  0  0  0  0  0  0  0  0  0  0
   18.1160   14.7530    4.5640 N   0  0  0  0  0  4  0  0  0  0  0  0
   19.3990   15.3630    4.1090 C   0  0  0  0  0  0  0  0  0  0  0  0
   20.2750   15.8340    5.2930 C   0  0  0  0  0  0  0  0  0  0  0  0
   21.7730   15.6470    4.9940 C   0  0  0  0  0  0  0  0  0  0  0  0
   19.9120   14.9730    6.5180 C   0  0  0  0  0  0  0  0  0  0  0  0
   20.0100   17.3100    5.6400 C   0  0  0  0  0  0  0  0  0  0  0  0
   16.4830   15.6560    6.7350 C   0  0  0  0  0  0  0  0  0  0  0  0
   16.4470   16.4000    5.4040 C   0  0  0  0  0  0  0  0  0  0  0  0
   17.0072   16.1949    3.3686 H   0  0  0  0  0  0  0  0  0  0  0  0
   14.1275   15.5585    4.6995 H   0  0  0  0  0  0  0  0  0  0  0  0
   12.4431   13.8479    4.0364 H   0  0  0  0  0  0  0  0  0  0  0  0
   13.1465   11.8283    2.7600 H   0  0  0  0  0  0  0  0  0  0  0  0
   15.5396   11.5135    2.1425 H   0  0  0  0  0  0  0  0  0  0  0  0
   17.2335   13.2146    2.8028 H   0  0  0  0  0  0  0  0  0  0  0  0
   18.1564   14.6650    5.5894 H   0  0  0  0  0  0  0  0  0  0  0  0
   18.0451   13.8557    4.0633 H   0  0  0  0  0  0  0  0  0  0  0  0
   19.9601   14.6158    3.5286 H   0  0  0  0  0  0  0  0  0  0  0  0
   19.1554   16.2446    3.4980 H   0  0  0  0  0  0  0  0  0  0  0  0
   22.3298   15.5775    5.9401 H   0  0  0  0  0  0  0  0  0  0  0  0
   21.9187   14.7237    4.4141 H   0  0  0  0  0  0  0  0  0  0  0  0
   22.1412   16.5062    4.4141 H   0  0  0  0  0  0  0  0  0  0  0  0
   20.1460   15.5279    7.4385 H   0  0  0  0  0  0  0  0  0  0  0  0
   18.8378   14.7371    6.4951 H   0  0  0  0  0  0  0  0  0  0  0  0
   20.4930   14.0393    6.4951 H   0  0  0  0  0  0  0  0  0  0  0  0
   19.9882   17.4315    6.7331 H   0  0  0  0  0  0  0  0  0  0  0  0
   20.8102   17.9354    5.2175 H   0  0  0  0  0  0  0  0  0  0  0  0
   19.0422   17.6180    5.2175 H   0  0  0  0  0  0  0  0  0  0  0  0
   16.4479   16.3811    7.5614 H   0  0  0  0  0  0  0  0  0  0  0  0
   15.6164   14.9818    6.8017 H   0  0  0  0  0  0  0  0  0  0  0  0
   17.4106   15.0686    6.8017 H   0  0  0  0  0  0  0  0  0  0  0  0
   17.1385   17.2537    5.4589 H   0  0  0  0  0  0  0  0  0  0  0  0
   15.4107   16.7271    5.2335 H   0  0  0  0  0  0  0  0  0  0  0  0
  2  1  1  0
  3  2  2  0
  4  3  1  0
  5  4  2  0
  6  5  1  0
  7  6  2  0
  7  2  1  0
  8  1  1  0
  9  8  1  0
 10  9  1  0
 11 10  1  0
 12 10  1  0
 13 10  1  0
 15  1  1  0
 15 14  1  0
  1 16  1  6
  3 17  1  0
  4 18  1  0
  5 19  1  0
  6 20  1  0
  7 21  1  0
  8 22  1  0
  8 23  1  0
  9 24  1  0
  9 25  1  0
 11 26  1  0
 11 27  1  0
 11 28  1  0
 12 29  1  0
 12 30  1  0
 12 31  1  0
 13 32  1  0
 13 33  1  0
 13 34  1  0
 14 35  1  0
 14 36  1  0
 14 37  1  0
 15 38  1  0
 15 39  1  0
M  CHG  1   8   1
M  END
$$$$
=
     RDKit          3D

 44 45  0  0  0  0  0  0  0  0999 V2000
   18.5090   15.1630    4.7760 N   0  0  1  0  0  4  0  0  0  0  0  0
   17.3600   14.3610    4.1730 C   0  0  0  0  0  0  0  0  0  0  0  0
   16.2150   15.2710    3.7740 C   0  0  0  0  0  0  0  0  0  0  0  0
   15.6300   16.0160    4.9690 C   0  0  0  0  0  0  0  0  0  0  0  0
   16.6120   16.1280    6.1310 C   0  0  0  0  0  0  0  0  0  0  0  0
   18.0540   16.3540    5.6790 C   0  0  2  0  0  0  0  0  0  0  0  0
   19.5460   14.2800    5.4790 C   0  0  0  0  0  0  0  0  0  0  0  0
   20.3550   15.0150    6.5840 C   0  0  0  0  0  0  0  0  0  0  0  0
   21.7820   15.2450    6.2130 N   0  0  0  0  0  4  0  0  0  0  0  0
   18.2340   17.7070    4.9290 C   0  0  0  0  0  0  0  0  0  0  0  0
   19.6270   18.0000    4.5470 N   0  0  0  0  0  0  0  0  0  0  0  0
   20.4680   18.6700    5.4270 C   0  0  0  0  0  0  0  0  0  0  0  0
   20.0170   19.3470    6.3650 O   0  0  0  0  0  0  0  0  0  0  0  0
   21.9530   18.6160    5.1590 C   0  0  0  0  0  0  0  0  0  0  0  0
   20.1290   17.2920    3.3890 C   0  0  0  0  0  0  0  0  0  0  0  0
   20.7940   18.0220    2.2500 C   0  0  0  0  0  0  0  0  0  0  0  0
   19.4510   17.3950    2.0430 C   0  0  0  0  0  0  0  0  0  0  0  0
   18.9747   15.5928    3.9641 H   0  0  0  0  0  0  0  0  0  0  0  0
   17.7224   13.8267    3.2824 H   0  0  0  0  0  0  0  0  0  0  0  0
   16.9955   13.6482    4.9273 H   0  0  0  0  0  0  0  0  0  0  0  0
   16.5844   16.0063    3.0440 H   0  0  0  0  0  0  0  0  0  0  0  0
   15.4197   14.6450    3.3432 H   0  0  0  0  0  0  0  0  0  0  0  0
   15.3476   17.0295    4.6480 H   0  0  0  0  0  0  0  0  0  0  0  0
   14.7596   15.4443    5.3234 H   0  0  0  0  0  0  0  0  0  0  0  0
   16.3078   16.9732    6.7659 H   0  0  0  0  0  0  0  0  0  0  0  0
   16.5854   15.1726    6.6755 H   0  0  0  0  0  0  0  0  0  0  0  0
   18.6860   16.4028    6.5780 H   0  0  0  0  0  0  0  0  0  0  0  0
   19.0213   13.4308    5.9411 H   0  0  0  0  0  0  0  0  0  0  0  0
   20.2683   13.9640    4.7119 H   0  0  0  0  0  0  0  0  0  0  0  0
   19.8817   15.9896    6.7740 H   0  0  0  0  0  0  0  0  0  0  0  0
   20.3488   14.3717    7.4763 H   0  0  0  0  0  0  0  0  0  0  0  0
   22.3487   15.3363    7.0682 H   0  0  0  0  0  0  0  0  0  0  0  0
   22.1250   14.4484    5.6573 H   0  0  0  0  0  0  0  0  0  0  0  0
   21.8573   16.1090    5.6573 H   0  0  0  0  0  0  0  0  0  0  0  0
   17.6231   17.6796    4.0147 H   0  0  0  0  0  0  0  0  0  0  0  0
   17.9210   18.5002    5.6239 H   0  0  0  0  0  0  0  0  0  0  0  0
   22.4976   18.5962    6.1145 H   0  0  0  0  0  0  0  0  0  0  0  0
   22.1890   17.7087    4.5836 H   0  0  0  0  0  0  0  0  0  0  0  0
   22.2543   19.5038    4.5836 H   0  0  0  0  0  0  0  0  0  0  0  0
   20.4100   16.4666    4.0597 H   0  0  0  0  0  0  0  0  0  0  0  0
   20.8895   19.1174    2.2813 H   0  0  0  0  0  0  0  0  0  0  0  0
   21.7695   17.9498    1.7468 H   0  0  0  0  0  0  0  0  0  0  0  0
   18.5607   18.0299    1.9233 H   0  0  0  0  0  0  0  0  0  0  0  0
   19.0331   16.6726    1.3264 H   0  0  0  0  0  0  0  0  0  0  0  0
  2  1  1  0
  3  2  1  0
  4  3  1  0
  5  4  1  0
  6  1  1  0
  6  5  1  0
  7  1  1  0
  8  7  1  0
  9  8  1  0
 10  6  1  0
 11 10  1  0
 12 11  1  0
 13 12  2  0
 14 12  1  0
 15 11  1  0
 16 15  1  0
 17 16  1  0
 17 15  1  0
  1 18  1  6
  2 19  1  0
  2 20  1  0
  3 21  1  0
  3 22  1  0
  4 23  1  0
  4 24  1  0
  5 25  1  0
  5 26  1  0
  6 27  1  1
  7 28  1  0
  7 29  1  0
  8 30  1  0
  8 31  1  0
  9 32  1  0
  9 33  1  0
  9 34  1  0
 10 35  1  0
 10 36  1  0
 14 37  1  0
 14 38  1  0
 14 39  1  0
 15 40  1  0
 16 41  1  0
 16 42  1  0
 17 43  1  0
 17 44  1  0
M  CHG  2   1   1   9   1
M  END
$$$$
=
     RDKit          3D

 29 31  0  0  0  0  0  0  0  0999 V2000
   19.4460   15.7020    4.8000 C   0  0  0  0  0  0  0  0  0  0  0  0
   20.0030   14.9500    3.8190 O   0  0  0  0  0  0  0  0  0  0  0  0
   18.9630   14.2290    3.2480 N   0  0  0  0  0  0  0  0  0  0  0  0
   17.8730   14.6150    3.9330 C   0  0  0  0  0  0  0  0  0  0  0  0
   18.1430   15.5600    4.9120 N   0  0  0  0  0  0  0  0  0  0  0  0
   20.7640   17.8390    3.0450 F   0  0  0  0  0  0  0  0  0  0  0  0
   21.1720   18.3900    4.2180 C   0  0  2  0  0  0  0  0  0  0  0  0
   22.3870   17.6260    4.7080 C   0  0  0  0  0  0  0  0  0  0  0  0
   21.8030   16.3470    5.2320 N   0  0  0  0  0  4  0  0  0  0  0  0
   20.3370   16.6040    5.5780 C   0  0  1  0  0  0  0  0  0  0  0  0
   20.1290   18.0870    5.2730 C   0  0  0  0  0  0  0  0  0  0  0  0
   16.5300   14.1100    3.6800 C   0  0  0  0  0  0  0  0  0  0  0  0
   15.4070   14.7490    4.2170 C   0  0  0  0  0  0  0  0  0  0  0  0
   14.1550   14.2270    3.9460 C   0  0  0  0  0  0  0  0  0  0  0  0
   13.9530   13.1280    3.1900 N   0  0  0  0  0  0  0  0  0  0  0  0
   15.0440   12.5260    2.6780 C   0  0  0  0  0  0  0  0  0  0  0  0
   16.3370   12.9710    2.8910 C   0  0  0  0  0  0  0  0  0  0  0  0
   21.3540   19.4642    4.0665 H   0  0  0  0  0  0  0  0  0  0  0  0
   23.0882   17.4302    3.8834 H   0  0  0  0  0  0  0  0  0  0  0  0
   22.9652   18.1767    5.4646 H   0  0  0  0  0  0  0  0  0  0  0  0
   21.8688   15.6124    4.5131 H   0  0  0  0  0  0  0  0  0  0  0  0
   22.3182   16.0343    6.0673 H   0  0  0  0  0  0  0  0  0  0  0  0
   20.0889   16.3874    6.6275 H   0  0  0  0  0  0  0  0  0  0  0  0
   20.2927   18.6985    6.1726 H   0  0  0  0  0  0  0  0  0  0  0  0
   19.1063   18.3121    4.9363 H   0  0  0  0  0  0  0  0  0  0  0  0
   15.5175   15.6477    4.8416 H   0  0  0  0  0  0  0  0  0  0  0  0
   13.2765   14.7355    4.3699 H   0  0  0  0  0  0  0  0  0  0  0  0
   14.8990   11.6306    2.0558 H   0  0  0  0  0  0  0  0  0  0  0  0
   17.1939   12.4409    2.4497 H   0  0  0  0  0  0  0  0  0  0  0  0
  2  1  1  0
  3  2  1  0
  4  3  2  0
  5  4  1  0
  5  1  2  0
  7  6  1  0
  8  7  1  0
  9  8  1  0
 10  1  1  0
 10  9  1  0
 11  7  1  0
 11 10  1  0
 12  4  1  0
 13 12  2  0
 14 13  1  0
 15 14  2  0
 16 15  1  0
 17 16  2  0
 17 12  1  0
  7 18  1  6
  8 19  1  0
  8 20  1  0
  9 21  1  0
  9 22  1  0
 10 23  1  1
 11 24  1  0
 11 25  1  0
 13 26  1  0
 14 27  1  0
 16 28  1  0
 17 29  1  0
M  CHG  1   9   1
M  END
$$$$
=
     RDKit          3D

 38 40  0  0  0  0  0  0  0  0999 V2000
   19.3900   15.6650    4.4600 N   0  0  0  0  0  4  0  0  0  0  0  0
   14.2150   12.6460    2.8000 C   0  0  0  0  0  0  0  0  0  0  0  0
   13.3460   13.3410    3.6340 C   0  0  0  0  0  0  0  0  0  0  0  0
   13.8310   14.3620    4.4500 C   0  0  0  0  0  0  0  0  0  0  0  0
   15.1930   14.7020    4.4380 C   0  0  0  0  0  0  0  0  0  0  0  0
   16.0730   13.9840    3.6090 C   0  0  0  0  0  0  0  0  0  0  0  0
   15.5710   12.9660    2.7840 C   0  0  0  0  0  0  0  0  0  0  0  0
   17.5390   14.3220    3.5420 C   0  0  0  0  0  0  0  0  0  0  0  0
   18.0130   15.1490    4.7460 C   0  0  2  0  0  0  0  0  0  0  0  0
   17.0640   16.3170    4.9990 C   0  0  0  0  0  0  0  0  0  0  0  0
   15.6750   15.7910    5.3600 C   0  0  0  0  0  0  0  0  0  0  0  0
   19.5290   16.6460    3.3280 C   0  0  0  0  0  0  0  0  0  0  0  0
   19.8010   18.0530    3.8740 C   0  0  0  0  0  0  0  0  0  0  0  0
   21.1320   18.1580    4.5400 C   0  0  0  0  0  0  0  0  0  0  0  0
   22.2260   18.9160    4.1960 C   0  0  0  0  0  0  0  0  0  0  0  0
   23.1830   18.6190    5.1290 N   0  0  0  0  0  0  0  0  0  0  0  0
   22.6430   17.7040    5.9920 C   0  0  0  0  0  0  0  0  0  0  0  0
   21.4030   17.4040    5.6690 N   0  0  0  0  0  0  0  0  0  0  0  0
   19.7331   16.1260    5.3148 H   0  0  0  0  0  0  0  0  0  0  0  0
   19.9302   14.8387    4.1664 H   0  0  0  0  0  0  0  0  0  0  0  0
   13.8318   11.8434    2.1527 H   0  0  0  0  0  0  0  0  0  0  0  0
   12.2763   13.0852    3.6499 H   0  0  0  0  0  0  0  0  0  0  0  0
   13.1396   14.9066    5.1098 H   0  0  0  0  0  0  0  0  0  0  0  0
   16.2535   12.4162    2.1193 H   0  0  0  0  0  0  0  0  0  0  0  0
   18.1148   13.3853    3.5100 H   0  0  0  0  0  0  0  0  0  0  0  0
   17.6987   14.9292    2.6388 H   0  0  0  0  0  0  0  0  0  0  0  0
   18.0256   14.5146    5.6445 H   0  0  0  0  0  0  0  0  0  0  0  0
   17.4499   16.9271    5.8290 H   0  0  0  0  0  0  0  0  0  0  0  0
   16.9934   16.9297    4.0881 H   0  0  0  0  0  0  0  0  0  0  0  0
   14.9622   16.6276    5.3151 H   0  0  0  0  0  0  0  0  0  0  0  0
   15.7423   15.3580    6.3690 H   0  0  0  0  0  0  0  0  0  0  0  0
   20.3652   16.3392    2.6825 H   0  0  0  0  0  0  0  0  0  0  0  0
   18.5931   16.6609    2.7503 H   0  0  0  0  0  0  0  0  0  0  0  0
   19.7664   18.7685    3.0392 H   0  0  0  0  0  0  0  0  0  0  0  0
   19.0309   18.2746    4.6275 H   0  0  0  0  0  0  0  0  0  0  0  0
   22.3139   19.6136    3.3501 H   0  0  0  0  0  0  0  0  0  0  0  0
   24.1341   19.0118    5.1733 H   0  0  0  0  0  0  0  0  0  0  0  0
   23.1795   17.2725    6.8499 H   0  0  0  0  0  0  0  0  0  0  0  0
  3  2  2  0
  4  3  1  0
  5  4  2  0
  6  5  1  0
  7  6  2  0
  7  2  1  0
  8  6  1  0
  9  8  1  0
  9  1  1  0
 10  9  1  0
 11  5  1  0
 11 10  1  0
 12  1  1  0
 13 12  1  0
 14 13  1  0
 15 14  2  0
 16 15  1  0
 17 16  1  0
 18 14  1  0
 18 17  2  0
  1 19  1  0
  1 20  1  0
  2 21  1  0
  3 22  1  0
  4 23  1  0
  7 24  1  0
  8 25  1  0
  8 26  1  0
  9 27  1  1
 10 28  1  0
 10 29  1  0
 11 30  1  0
 11 31  1  0
 12 32  1  0
 12 33  1  0
 13 34  1  0
 13 35  1  0
 15 36  1  0
 16 37  1  0
 17 38  1  0
M  CHG  1   1   1
M  END
$$$$
=
     RDKit          3D

 25 25  0  0  0  0  0  0  0  0999 V2000
   19.8580   15.9930    4.0640 C   0  0  0  0  0  0  0  0  0  0  0  0
   20.2300   17.0940    3.3280 N   0  0  0  0  0  0  0  0  0  0  0  0
   19.6600   17.4970    2.0600 C   0  0  0  0  0  0  0  0  0  0  0  0
   21.2190   17.8240    3.8910 N   0  0  0  0  0  0  0  0  0  0  0  0
   21.4810   17.1640    5.0300 C   0  0  0  0  0  0  0  0  0  0  0  0
   20.6610   16.0120    5.1970 C   0  0  0  0  0  0  0  0  0  0  0  0
   20.6880   15.0690    6.3450 C   0  0  0  0  0  0  0  0  0  0  0  0
   17.6170   15.2540    4.2030 C   0  0  0  0  0  0  0  0  0  0  0  0
   18.8900   15.2110    3.5780 O   0  0  0  0  0  0  0  0  0  0  0  0
   22.5430   17.7150    5.9240 C   0  0  0  0  0  0  0  0  0  0  0  0
   23.3230   18.7380    5.1800 N   0  0  0  0  0  4  0  0  0  0  0  0
   18.7738   18.1236    2.2390 H   0  0  0  0  0  0  0  0  0  0  0  0
   20.4050   18.0702    1.4887 H   0  0  0  0  0  0  0  0  0  0  0  0
   19.3680   16.6035    1.4887 H   0  0  0  0  0  0  0  0  0  0  0  0
   20.6717   15.6372    7.2867 H   0  0  0  0  0  0  0  0  0  0  0  0
   19.8084   14.4101    6.2991 H   0  0  0  0  0  0  0  0  0  0  0  0
   21.6039   14.4615    6.2991 H   0  0  0  0  0  0  0  0  0  0  0  0
   17.7446   15.2497    5.2956 H   0  0  0  0  0  0  0  0  0  0  0  0
   17.0900   16.1705    3.8990 H   0  0  0  0  0  0  0  0  0  0  0  0
   17.0294   14.3752    3.8990 H   0  0  0  0  0  0  0  0  0  0  0  0
   22.0777   18.1771    6.8072 H   0  0  0  0  0  0  0  0  0  0  0  0
   23.2111   16.9039    6.2490 H   0  0  0  0  0  0  0  0  0  0  0  0
   23.7980   19.3610    5.8487 H   0  0  0  0  0  0  0  0  0  0  0  0
   24.0246   18.2711    4.5878 H   0  0  0  0  0  0  0  0  0  0  0  0
   22.6870   19.2910    4.5878 H   0  0  0  0  0  0  0  0  0  0  0  0
  2  1  1  0
  3  2  1  0
  4  2  1  0
  5  4  2  0
  6  1  2  0
  6  5  1  0
  7  6  1  0
  9  8  1  0
  9  1  1  0
 10  5  1  0
 11 10  1  0
  3 12  1  0
  3 13  1  0
  3 14  1  0
  7 15  1  0
  7 16  1  0
  7 17  1  0
  8 18  1  0
  8 19  1  0
  8 20  1  0
 10 21  1  0
 10 22  1  0
 11 23  1  0
 11 24  1  0
 11 25  1  0
M  CHG  1  11   1
M  END
$$$$
=
     RDKit          3D

 35 36  0  0  0  0  0  0  0  0999 V2000
   17.1130   15.5940    4.2750 C   0  0  0  0  0  0  0  0  0  0  0  0
   13.8820   12.8910    3.2700 C   0  0  0  0  0  0  0  0  0  0  0  0
   13.6420   14.0340    4.0360 C   0  0  0  0  0  0  0  0  0  0  0  0
   14.6840   14.9050    4.3700 C   0  0  0  0  0  0  0  0  0  0  0  0
   15.9820   14.6690    3.9000 C   0  0  0  0  0  0  0  0  0  0  0  0
   16.2120   13.5550    3.0880 C   0  0  0  0  0  0  0  0  0  0  0  0
   15.1650   12.6880    2.7580 C   0  0  0  0  0  0  0  0  0  0  0  0
   12.8160   12.0910    2.8430 N   0  0  0  0  0  0  0  0  0  0  0  0
   18.3860   15.2540    3.5010 C   0  0  0  0  0  0  0  0  0  0  0  0
   19.3380   16.4350    3.4320 C   0  0  0  0  0  0  0  0  0  0  0  0
   19.2610   17.2690    2.5290 O   0  0  0  0  0  0  0  0  0  0  0  0
   20.2840   16.5350    4.4470 N   0  0  0  0  0  0  0  0  0  0  0  0
   20.6460   15.4230    5.3350 C   0  0  0  0  0  0  0  0  0  0  0  0
   21.2800   15.9180    6.6380 C   0  0  0  0  0  0  0  0  0  0  0  0
   22.3790   16.8020    6.3800 O   0  0  0  0  0  0  0  0  0  0  0  0
   21.9250   17.9550    5.6540 C   0  0  0  0  0  0  0  0  0  0  0  0
   21.3250   17.5570    4.3050 C   0  0  0  0  0  0  0  0  0  0  0  0
   16.8202   16.6294    4.0466 H   0  0  0  0  0  0  0  0  0  0  0  0
   17.3172   15.4762    5.3494 H   0  0  0  0  0  0  0  0  0  0  0  0
   12.6205   14.2519    4.3810 H   0  0  0  0  0  0  0  0  0  0  0  0
   14.4830   15.7802    5.0053 H   0  0  0  0  0  0  0  0  0  0  0  0
   17.2244   13.3584    2.7054 H   0  0  0  0  0  0  0  0  0  0  0  0
   15.3546   11.8368    2.0876 H   0  0  0  0  0  0  0  0  0  0  0  0
   12.9979   11.2490    2.2783 H   0  0  0  0  0  0  0  0  0  0  0  0
   11.8495   12.3442    3.0935 H   0  0  0  0  0  0  0  0  0  0  0  0
   18.8938   14.4164    4.0016 H   0  0  0  0  0  0  0  0  0  0  0  0
   18.0994   14.9861    2.4733 H   0  0  0  0  0  0  0  0  0  0  0  0
   19.7385   14.8500    5.5760 H   0  0  0  0  0  0  0  0  0  0  0  0
   21.3834   14.7953    4.8132 H   0  0  0  0  0  0  0  0  0  0  0  0
   20.5197   16.4536    7.2255 H   0  0  0  0  0  0  0  0  0  0  0  0
   21.6583   15.0467    7.1928 H   0  0  0  0  0  0  0  0  0  0  0  0
   21.1590   18.4747    6.2483 H   0  0  0  0  0  0  0  0  0  0  0  0
   22.7868   18.6138    5.4716 H   0  0  0  0  0  0  0  0  0  0  0  0
   22.1258   17.1614    3.6630 H   0  0  0  0  0  0  0  0  0  0  0  0
   20.8643   18.4517    3.8609 H   0  0  0  0  0  0  0  0  0  0  0  0
  3  2  2  0
  4  3  1  0
  5  4  2  0
  5  1  1  0
  6  5  1  0
  7  6  2  0
  7  2  1  0
  8  2  1  0
  9  1  1  0
 10  9  1  0
 11 10  2  0
 12 10  1  0
 13 12  1  0
 14 13  1  0
 15 14  1  0
 16 15  1  0
 17 12  1  0
 17 16  1  0
  1 18  1  0
  1 19  1  0
  3 20  1  0
  4 21  1  0
  6 22  1  0
  7 23  1  0
  8 24  1  0
  8 25  1  0
  9 26  1  0
  9 27  1  0
 13 28  1  0
 13 29  1  0
 14 30  1  0
 14 31  1  0
 16 32  1  0
 16 33  1  0
 17 34  1  0
 17 35  1  0
M  END
$$$$
=
     RDKit          3D

 33 35  0  0  0  0  0  0  0  0999 V2000
   16.9880   12.0200    2.0320 F   0  0  0  0  0  0  0  0  0  0  0  0
   16.7450   13.0730    2.8210 C   0  0  0  0  0  0  0  0  0  0  0  0
   15.4420   13.4360    3.1010 C   0  0  0  0  0  0  0  0  0  0  0  0
   15.2060   14.5240    3.9360 C   0  0  0  0  0  0  0  0  0  0  0  0
   16.2750   15.2500    4.4970 C   0  0  0  0  0  0  0  0  0  0  0  0
   17.6100   14.8970    4.1900 C   0  0  0  0  0  0  0  0  0  0  0  0
   17.8200   13.7820    3.3520 C   0  0  0  0  0  0  0  0  0  0  0  0
   18.7940   15.6410    4.8130 C   0  0  2  0  0  0  0  0  0  0  0  0
   18.3520   17.0020    5.4160 C   0  0  0  0  0  0  0  0  0  0  0  0
   17.0790   16.8930    6.2440 C   0  0  0  0  0  0  0  0  0  0  0  0
   15.9250   16.4380    5.3630 C   0  0  0  0  0  0  0  0  0  0  0  0
   19.9650   15.9030    3.8110 C   0  0  0  0  0  0  0  0  0  0  0  0
   21.1200   16.4390    4.4770 O   0  0  0  0  0  0  0  0  0  0  0  0
   21.6600   15.5100    5.4220 C   0  0  0  0  0  0  0  0  0  0  0  0
   20.6540   15.2140    6.5330 C   0  0  0  0  0  0  0  0  0  0  0  0
   19.3470   14.7590    5.9420 N   0  0  0  0  0  4  0  0  0  0  0  0
   14.6017   12.8723    2.6695 H   0  0  0  0  0  0  0  0  0  0  0  0
   14.1710   14.8210    4.1609 H   0  0  0  0  0  0  0  0  0  0  0  0
   18.8471   13.4680    3.1145 H   0  0  0  0  0  0  0  0  0  0  0  0
   19.1594   17.3801    6.0603 H   0  0  0  0  0  0  0  0  0  0  0  0
   18.1458   17.6848    4.5786 H   0  0  0  0  0  0  0  0  0  0  0  0
   17.2310   16.1622    7.0520 H   0  0  0  0  0  0  0  0  0  0  0  0
   16.8407   17.8776    6.6727 H   0  0  0  0  0  0  0  0  0  0  0  0
   15.6321   17.2734    4.7101 H   0  0  0  0  0  0  0  0  0  0  0  0
   15.1052   16.1295    6.0285 H   0  0  0  0  0  0  0  0  0  0  0  0
   20.2400   14.9542    3.3271 H   0  0  0  0  0  0  0  0  0  0  0  0
   19.6240   16.6384    3.0674 H   0  0  0  0  0  0  0  0  0  0  0  0
   21.9094   14.5727    4.9031 H   0  0  0  0  0  0  0  0  0  0  0  0
   22.5610   15.9516    5.8728 H   0  0  0  0  0  0  0  0  0  0  0  0
   21.0537   14.4224    7.1839 H   0  0  0  0  0  0  0  0  0  0  0  0
   20.4843   16.1303    7.1174 H   0  0  0  0  0  0  0  0  0  0  0  0
   18.6477   14.7342    6.6978 H   0  0  0  0  0  0  0  0  0  0  0  0
   19.5312   13.8380    5.5193 H   0  0  0  0  0  0  0  0  0  0  0  0
  2  1  1  0
  3  2  2  0
  4  3  1  0
  5  4  2  0
  6  5  1  0
  7  6  2  0
  7  2  1  0
  8  6  1  0
  8  9  1  1
 10  9  1  0
 11  5  1  0
 11 10  1  0
 12  8  1  0
 13 12  1  0
 14 13  1  0
 15 14  1  0
 16  8  1  0
 16 15  1  0
  3 17  1  0
  4 18  1  0
  7 19  1  0
  9 20  1  0
  9 21  1  0
 10 22  1  0
 10 23  1  0
 11 24  1  0
 11 25  1  0
 12 26  1  0
 12 27  1  0
 14 28  1  0
 14 29  1  0
 15 30  1  0
 15 31  1  0
 16 32  1  0
 16 33  1  0
M  CHG  1  16   1
M  END
$$$$
=
     RDKit          3D

 37 37  0  0  0  0  0  0  0  0999 V2000
   19.2160   14.6600    4.9540 C   0  0  0  0  0  0  0  0  0  0  0  0
   19.7460   14.6710    6.3790 C   0  0  0  0  0  0  0  0  0  0  0  0
   21.2060   15.0140    6.3860 N   0  0  0  0  0  4  0  0  0  0  0  0
   21.6690   15.9160    5.2810 C   0  0  0  0  0  0  0  0  0  0  0  0
   22.0950   17.2710    5.8350 C   0  0  0  0  0  0  0  0  0  0  0  0
   20.2990   18.1820    4.2660 C   0  0  0  0  0  0  0  0  0  0  0  0
   21.0680   18.3740    5.5630 C   0  0  0  0  0  0  0  0  0  0  0  0
   17.8970   15.4120    4.7930 C   0  0  0  0  0  0  0  0  0  0  0  0
   17.3300   14.9970    3.5560 O   0  0  0  0  0  0  0  0  0  0  0  0
   16.0790   14.4470    3.5940 C   0  0  0  0  0  0  0  0  0  0  0  0
   15.9440   13.2570    2.8740 C   0  0  0  0  0  0  0  0  0  0  0  0
   14.7200   12.5880    2.8290 C   0  0  0  0  0  0  0  0  0  0  0  0
   13.6190   13.1080    3.5040 C   0  0  0  0  0  0  0  0  0  0  0  0
   13.7440   14.2970    4.2190 C   0  0  0  0  0  0  0  0  0  0  0  0
   14.9710   14.9690    4.2650 C   0  0  0  0  0  0  0  0  0  0  0  0
   19.9662   15.1273    4.2991 H   0  0  0  0  0  0  0  0  0  0  0  0
   19.0267   13.6102    4.6855 H   0  0  0  0  0  0  0  0  0  0  0  0
   19.1941   15.4197    6.9662 H   0  0  0  0  0  0  0  0  0  0  0  0
   19.6097   13.6727    6.8203 H   0  0  0  0  0  0  0  0  0  0  0  0
   21.4178   15.4767    7.2815 H   0  0  0  0  0  0  0  0  0  0  0  0
   21.7037   14.1230    6.2473 H   0  0  0  0  0  0  0  0  0  0  0  0
   22.5238   15.4503    4.7688 H   0  0  0  0  0  0  0  0  0  0  0  0
   20.8382   16.0672    4.5760 H   0  0  0  0  0  0  0  0  0  0  0  0
   22.2315   17.1786    6.9226 H   0  0  0  0  0  0  0  0  0  0  0  0
   23.0289   17.5565    5.3287 H   0  0  0  0  0  0  0  0  0  0  0  0
   19.2549   17.9213    4.4939 H   0  0  0  0  0  0  0  0  0  0  0  0
   20.3252   19.1143    3.6827 H   0  0  0  0  0  0  0  0  0  0  0  0
   20.7603   17.3715    3.6827 H   0  0  0  0  0  0  0  0  0  0  0  0
   21.5967   19.3374    5.5146 H   0  0  0  0  0  0  0  0  0  0  0  0
   20.3340   18.3407    6.3816 H   0  0  0  0  0  0  0  0  0  0  0  0
   17.2175   15.1647    5.6219 H   0  0  0  0  0  0  0  0  0  0  0  0
   18.0613   16.4996    4.8043 H   0  0  0  0  0  0  0  0  0  0  0  0
   16.8108   12.8436    2.3376 H   0  0  0  0  0  0  0  0  0  0  0  0
   14.6253   11.6509    2.2608 H   0  0  0  0  0  0  0  0  0  0  0  0
   12.6536   12.5817    3.4728 H   0  0  0  0  0  0  0  0  0  0  0  0
   12.8738   14.7100    4.7503 H   0  0  0  0  0  0  0  0  0  0  0  0
   15.0626   15.9085    4.8298 H   0  0  0  0  0  0  0  0  0  0  0  0
  2  1  1  0
  3  2  1  0
  4  3  1  0
  5  4  1  0
  7  6  1  0
  7  5  1  0
  8  1  1  0
  9  8  1  0
 10  9  1  0
 11 10  2  0
 12 11  1  0
 13 12  2  0
 14 13  1  0
 15 14  2  0
 15 10  1  0
  1 16  1  0
  1 17  1  0
  2 18  1  0
  2 19  1  0
  3 20  1  0
  3 21  1  0
  4 22  1  0
  4 23  1  0
  5 24  1  0
  5 25  1  0
  6 26  1  0
  6 27  1  0
  6 28  1  0
  7 29  1  0
  7 30  1  0
  8 31  1  0
  8 32  1  0
 11 33  1  0
 12 34  1  0
 13 35  1  0
 14 36  1  0
 15 37  1  0
M  CHG  1   3   1
M  END
$$$$
=
     RDKit          3D

 23 24  0  0  0  0  0  0  0  0999 V2000
   16.6830   15.0410    4.0190 C   0  0  0  0  0  0  0  0  0  0  0  0
   15.6650   15.7170    4.6880 C   0  0  0  0  0  0  0  0  0  0  0  0
   14.3670   15.2070    4.6610 C   0  0  0  0  0  0  0  0  0  0  0  0
   14.0900   14.0190    3.9820 C   0  0  0  0  0  0  0  0  0  0  0  0
   15.1120   13.3050    3.3540 C   0  0  0  0  0  0  0  0  0  0  0  0
   16.3970   13.8540    3.3350 C   0  0  0  0  0  0  0  0  0  0  0  0
   14.8110   12.1830    2.5730 N   0  0  0  0  0  0  0  0  0  0  0  0
   17.9910   15.4540    3.9440 O   0  0  0  0  0  0  0  0  0  0  0  0
   21.0290   15.3370    7.2050 O   0  0  0  0  0  0  0  0  0  0  0  0
   20.2920   15.3260    6.2500 C   0  0  0  0  0  0  0  0  0  0  0  0
   20.4150   15.3610    4.7240 C   0  0  0  0  0  0  0  0  0  0  0  0
   18.9780   14.7920    4.7530 C   0  0  1  0  0  0  0  0  0  0  0  0
   18.9450   15.1690    6.1760 N   0  0  0  0  0  0  0  0  0  0  0  0
   15.8834   16.6467    5.2339 H   0  0  0  0  0  0  0  0  0  0  0  0
   13.5574   15.7436    5.1774 H   0  0  0  0  0  0  0  0  0  0  0  0
   13.0573   13.6423    3.9415 H   0  0  0  0  0  0  0  0  0  0  0  0
   17.1953   13.3458    2.7743 H   0  0  0  0  0  0  0  0  0  0  0  0
   15.5679   11.6588    2.1113 H   0  0  0  0  0  0  0  0  0  0  0  0
   13.8326   11.8816    2.4601 H   0  0  0  0  0  0  0  0  0  0  0  0
   20.5163   16.3632    4.2821 H   0  0  0  0  0  0  0  0  0  0  0  0
   21.2423   14.8921    4.1710 H   0  0  0  0  0  0  0  0  0  0  0  0
   18.7709   13.7739    4.3917 H   0  0  0  0  0  0  0  0  0  0  0  0
   18.1831   15.2745    6.8610 H   0  0  0  0  0  0  0  0  0  0  0  0
  2  1  2  0
  3  2  1  0
  4  3  2  0
  5  4  1  0
  6  5  2  0
  6  1  1  0
  7  5  1  0
  8  1  1  0
 10  9  2  0
 11 10  1  0
 12 11  1  0
 12  8  1  0
 13 12  1  0
 13 10  1  0
  2 14  1  0
  3 15  1  0
  4 16  1  0
  6 17  1  0
  7 18  1  0
  7 19  1  0
 11 20  1  0
 11 21  1  0
 12 22  1  1
 13 23  1  0
M  END
$$$$
=
     RDKit          3D

 41 42  0  0  0  0  0  0  0  0999 V2000
   20.4340   16.3440    4.6340 C   0  0  0  0  0  0  0  0  0  0  0  0
   19.8530   16.8390    3.4570 C   0  0  0  0  0  0  0  0  0  0  0  0
   20.5590   17.8570    2.6030 C   0  0  0  0  0  0  0  0  0  0  0  0
   18.5710   16.4000    3.0960 C   0  0  0  0  0  0  0  0  0  0  0  0
   17.8830   15.4500    3.8710 C   0  0  0  0  0  0  0  0  0  0  0  0
   18.5100   14.9340    5.0180 C   0  0  0  0  0  0  0  0  0  0  0  0
   19.7930   15.3580    5.3980 C   0  0  0  0  0  0  0  0  0  0  0  0
   20.4310   14.7800    6.6310 C   0  0  0  0  0  0  0  0  0  0  0  0
   16.5220   14.9180    3.4600 C   0  0  1  0  0  0  0  0  0  0  0  0
   16.5560   13.4380    3.0560 C   0  0  0  0  0  0  0  0  0  0  0  0
   15.2060   12.8470    2.6440 C   0  0  0  0  0  0  0  0  0  0  0  0
   14.2860   12.5920    3.8360 C   0  0  0  0  0  0  0  0  0  0  0  0
   13.4730   13.7960    4.3090 C   0  0  0  0  0  0  0  0  0  0  0  0
   14.1080   15.1700    4.1770 C   0  0  0  0  0  0  0  0  0  0  0  0
   15.5400   15.1610    4.5680 N   0  0  0  0  0  4  0  0  0  0  0  0
   21.6270   17.9560    5.7690 C   0  0  0  0  0  0  0  0  0  0  0  0
   21.6920   16.7600    4.9890 O   0  0  0  0  0  0  0  0  0  0  0  0
   21.0665   18.5887    3.2488 H   0  0  0  0  0  0  0  0  0  0  0  0
   21.3014   17.3514    1.9680 H   0  0  0  0  0  0  0  0  0  0  0  0
   19.8253   18.3751    1.9680 H   0  0  0  0  0  0  0  0  0  0  0  0
   18.0956   16.8059    2.1909 H   0  0  0  0  0  0  0  0  0  0  0  0
   17.9859   14.1843    5.6290 H   0  0  0  0  0  0  0  0  0  0  0  0
   19.9564   15.2100    7.5253 H   0  0  0  0  0  0  0  0  0  0  0  0
   20.2986   13.6880    6.6348 H   0  0  0  0  0  0  0  0  0  0  0  0
   21.5047   15.0192    6.6348 H   0  0  0  0  0  0  0  0  0  0  0  0
   16.2031   15.4636    2.5596 H   0  0  0  0  0  0  0  0  0  0  0  0
   17.2477   13.3321    2.2073 H   0  0  0  0  0  0  0  0  0  0  0  0
   16.8732   12.8830    3.9512 H   0  0  0  0  0  0  0  0  0  0  0  0
   14.7084   13.5496    1.9594 H   0  0  0  0  0  0  0  0  0  0  0  0
   15.4009   11.8780    2.1613 H   0  0  0  0  0  0  0  0  0  0  0  0
   13.5806   11.7959    3.5554 H   0  0  0  0  0  0  0  0  0  0  0  0
   14.9456   12.3248    4.6747 H   0  0  0  0  0  0  0  0  0  0  0  0
   12.5375   13.8090    3.7305 H   0  0  0  0  0  0  0  0  0  0  0  0
   13.3560   13.6455    5.3924 H   0  0  0  0  0  0  0  0  0  0  0  0
   14.0277   15.4992    3.1305 H   0  0  0  0  0  0  0  0  0  0  0  0
   13.5759   15.8564    4.8521 H   0  0  0  0  0  0  0  0  0  0  0  0
   15.7580   16.0761    4.9875 H   0  0  0  0  0  0  0  0  0  0  0  0
   15.6469   14.3656    5.2136 H   0  0  0  0  0  0  0  0  0  0  0  0
   21.6410   17.6977    6.8381 H   0  0  0  0  0  0  0  0  0  0  0  0
   22.4918   18.5941    5.5346 H   0  0  0  0  0  0  0  0  0  0  0  0
   20.6981   18.4966    5.5346 H   0  0  0  0  0  0  0  0  0  0  0  0
  2  1  2  0
  3  2  1  0
  4  2  1  0
  5  4  2  0
  6  5  1  0
  7  6  2  0
  7  1  1  0
  8  7  1  0
  9  5  1  0
 10  9  1  0
 11 10  1  0
 12 11  1  0
 13 12  1  0
 14 13  1  0
 15 14  1  0
 15  9  1  0
 17  1  1  0
 17 16  1  0
  3 18  1  0
  3 19  1  0
  3 20  1  0
  4 21  1  0
  6 22  1  0
  8 23  1  0
  8 24  1  0
  8 25  1  0
  9 26  1  6
 10 27  1  0
 10 28  1  0
 11 29  1  0
 11 30  1  0
 12 31  1  0
 12 32  1  0
 13 33  1  0
 13 34  1  0
 14 35  1  0
 14 36  1  0
 15 37  1  0
 15 38  1  0
 16 39  1  0
 16 40  1  0
 16 41  1  0
M  CHG  1  15   1
M  END
$$$$
=
     RDKit          3D

 31 33  0  0  0  0  0  0  0  0999 V2000
   21.9400   17.2230    5.1000 C   0  0  0  0  0  0  0  0  0  0  0  0
   21.4660   18.0590    3.9100 C   0  0  0  0  0  0  0  0  0  0  0  0
   19.9400   18.0120    3.9680 C   0  0  2  0  0  0  0  0  0  0  0  0
   19.7040   17.8680    5.4430 N   0  0  0  0  0  4  0  0  0  0  0  0
   20.6660   16.7790    5.8210 C   0  0  1  0  0  0  0  0  0  0  0  0
   20.1290   15.4470    5.2920 C   0  0  0  0  0  0  0  0  0  0  0  0
   19.0760   15.6010    4.1820 C   0  0  1  0  0  0  0  0  0  0  0  0
   19.3740   16.7830    3.2470 C   0  0  0  0  0  0  0  0  0  0  0  0
   18.9980   14.4180    3.3800 O   0  0  0  0  0  0  0  0  0  0  0  0
   17.7370   13.8580    3.3040 C   0  0  0  0  0  0  0  0  0  0  0  0
   16.6710   14.6390    3.7000 C   0  0  0  0  0  0  0  0  0  0  0  0
   15.3970   14.0940    3.6180 C   0  0  0  0  0  0  0  0  0  0  0  0
   15.2690   12.8010    3.1440 C   0  0  0  0  0  0  0  0  0  0  0  0
   16.3320   12.0620    2.7610 N   0  0  0  0  0  0  0  0  0  0  0  0
   17.5800   12.5980    2.8420 N   0  0  0  0  0  0  0  0  0  0  0  0
   22.5098   16.3485    4.7528 H   0  0  0  0  0  0  0  0  0  0  0  0
   22.6050   17.7965    5.7625 H   0  0  0  0  0  0  0  0  0  0  0  0
   21.8235   19.0954    4.0002 H   0  0  0  0  0  0  0  0  0  0  0  0
   21.8527   17.6714    2.9560 H   0  0  0  0  0  0  0  0  0  0  0  0
   19.4656   18.8825    3.4913 H   0  0  0  0  0  0  0  0  0  0  0  0
   19.9182   18.7435    5.9415 H   0  0  0  0  0  0  0  0  0  0  0  0
   18.7257   17.6534    5.6834 H   0  0  0  0  0  0  0  0  0  0  0  0
   20.8262   16.6324    6.8994 H   0  0  0  0  0  0  0  0  0  0  0  0
   20.9734   14.8669    4.8914 H   0  0  0  0  0  0  0  0  0  0  0  0
   19.6350   14.9423    6.1354 H   0  0  0  0  0  0  0  0  0  0  0  0
   18.1224   15.7829    4.6992 H   0  0  0  0  0  0  0  0  0  0  0  0
   20.1058   16.4544    2.4943 H   0  0  0  0  0  0  0  0  0  0  0  0
   18.4169   17.0865    2.7976 H   0  0  0  0  0  0  0  0  0  0  0  0
   16.8260   15.6633    4.0698 H   0  0  0  0  0  0  0  0  0  0  0  0
   14.5134   14.6746    3.9217 H   0  0  0  0  0  0  0  0  0  0  0  0
   14.2642   12.3585    3.0766 H   0  0  0  0  0  0  0  0  0  0  0  0
  2  1  1  0
  3  2  1  0
  4  3  1  0
  5  4  1  0
  5  1  1  0
  6  5  1  0
  7  6  1  0
  8  7  1  0
  8  3  1  0
  9  7  1  0
 10  9  1  0
 11 10  2  0
 12 11  1  0
 13 12  2  0
 14 13  1  0
 15 14  2  0
 15 10  1  0
  1 16  1  0
  1 17  1  0
  2 18  1  0
  2 19  1  0
  3 20  1  6
  4 21  1  0
  4 22  1  0
  5 23  1  1
  6 24  1  0
  6 25  1  0
  7 26  1  1
  8 27  1  0
  8 28  1  0
 11 29  1  0
 12 30  1  0
 13 31  1  0
M  CHG  1   4   1
M  END
$$$$
=
     RDKit          3D

 29 29  0  0  0  0  0  0  0  0999 V2000
   18.9290   15.7640    3.4050 C   0  0  2  0  0  0  0  0  0  0  0  0
   17.6620   15.5660    4.2000 C   0  0  0  0  0  0  0  0  0  0  0  0
   17.5500   15.9860    5.5350 C   0  0  0  0  0  0  0  0  0  0  0  0
   16.3550   15.8170    6.2360 C   0  0  0  0  0  0  0  0  0  0  0  0
   15.2570   15.2300    5.6130 C   0  0  0  0  0  0  0  0  0  0  0  0
   15.3520   14.8090    4.2890 C   0  0  0  0  0  0  0  0  0  0  0  0
   16.5450   14.9760    3.5840 C   0  0  0  0  0  0  0  0  0  0  0  0
   20.0130   14.9540    3.8870 O   0  0  0  0  0  0  0  0  0  0  0  0
   19.4210   17.2280    3.3610 C   0  0  2  0  0  0  0  0  0  0  0  0
   19.4930   17.6500    1.9090 N   0  0  0  0  0  4  0  0  0  0  0  0
   20.8320   17.4530    3.9340 C   0  0  0  0  0  0  0  0  0  0  0  0
   21.9510   17.0210    5.9740 C   0  0  0  0  0  0  0  0  0  0  0  0
   20.7120   17.3930    5.3670 O   0  0  0  0  0  0  0  0  0  0  0  0
   18.6445   15.4562    2.3880 H   0  0  0  0  0  0  0  0  0  0  0  0
   18.4124   16.4528    6.0333 H   0  0  0  0  0  0  0  0  0  0  0  0
   16.2806   16.1481    7.2823 H   0  0  0  0  0  0  0  0  0  0  0  0
   14.3153   15.0989    6.1661 H   0  0  0  0  0  0  0  0  0  0  0  0
   14.4848   14.3437    3.7976 H   0  0  0  0  0  0  0  0  0  0  0  0
   16.6115   14.6431    2.5377 H   0  0  0  0  0  0  0  0  0  0  0  0
   20.0111   14.9554    4.8770 H   0  0  0  0  0  0  0  0  0  0  0  0
   18.7114   17.8023    3.9747 H   0  0  0  0  0  0  0  0  0  0  0  0
   19.6660   18.6639    1.8543 H   0  0  0  0  0  0  0  0  0  0  0  0
   20.2600   17.1452    1.4424 H   0  0  0  0  0  0  0  0  0  0  0  0
   18.6020   17.4281    1.4424 H   0  0  0  0  0  0  0  0  0  0  0  0
   21.5152   16.6680    3.5778 H   0  0  0  0  0  0  0  0  0  0  0  0
   21.2394   18.4226    3.6118 H   0  0  0  0  0  0  0  0  0  0  0  0
   21.8470   17.0522    7.0686 H   0  0  0  0  0  0  0  0  0  0  0  0
   22.2216   16.0020    5.6603 H   0  0  0  0  0  0  0  0  0  0  0  0
   22.7382   17.7224    5.6603 H   0  0  0  0  0  0  0  0  0  0  0  0
  2  1  1  0
  3  2  2  0
  4  3  1  0
  5  4  2  0
  6  5  1  0
  7  6  2  0
  7  2  1  0
  8  1  1  0
  9  1  1  0
 10  9  1  0
 11  9  1  0
 13 11  1  0
 13 12  1  0
  1 14  1  6
  3 15  1  0
  4 16  1  0
  5 17  1  0
  6 18  1  0
  7 19  1  0
  8 20  1  0
  9 21  1  1
 10 22  1  0
 10 23  1  0
 10 24  1  0
 11 25  1  0
 11 26  1  0
 12 27  1  0
 12 28  1  0
 12 29  1  0
M  CHG  1  10   1
M  END
$$$$
=
     RDKit          3D

 37 37  0  0  0  0  0  0  0  0999 V2000
   20.0500   16.7290    4.1510 N   0  0  0  0  0  0  0  0  0  0  0  0
   21.1270   17.0100    4.9650 C   0  0  0  0  0  0  0  0  0  0  0  0
   21.5740   16.2200    5.8060 O   0  0  0  0  0  0  0  0  0  0  0  0
   19.7850   17.5400    1.8310 C   0  0  0  0  0  0  0  0  0  0  0  0
   19.3680   17.6990    3.2850 C   0  0  0  0  0  0  0  0  0  0  0  0
   21.8460   18.3660    4.8510 C   0  0  2  0  0  0  0  0  0  0  0  0
   23.3460   18.2090    5.0590 C   0  0  0  0  0  0  0  0  0  0  0  0
   21.3290   19.2630    5.9500 N   0  0  0  0  0  4  0  0  0  0  0  0
   19.4850   15.3730    4.1880 C   0  0  0  0  0  0  0  0  0  0  0  0
   18.0960   15.3760    4.7820 C   0  0  0  0  0  0  0  0  0  0  0  0
   17.8930   15.7800    6.1100 C   0  0  0  0  0  0  0  0  0  0  0  0
   16.6130   15.7690    6.6640 C   0  0  0  0  0  0  0  0  0  0  0  0
   15.5250   15.3490    5.9020 C   0  0  0  0  0  0  0  0  0  0  0  0
   15.7050   14.9300    4.5790 C   0  0  0  0  0  0  0  0  0  0  0  0
   16.9910   14.9590    4.0230 C   0  0  0  0  0  0  0  0  0  0  0  0
   14.5240   14.5220    3.7470 C   0  0  0  0  0  0  0  0  0  0  0  0
   20.8119   17.1484    1.7848 H   0  0  0  0  0  0  0  0  0  0  0  0
   19.1024   16.8391    1.3283 H   0  0  0  0  0  0  0  0  0  0  0  0
   19.7423   18.5175    1.3283 H   0  0  0  0  0  0  0  0  0  0  0  0
   19.6204   18.7160    3.6198 H   0  0  0  0  0  0  0  0  0  0  0  0
   18.2848   17.5207    3.3542 H   0  0  0  0  0  0  0  0  0  0  0  0
   21.6587   18.7820    3.8501 H   0  0  0  0  0  0  0  0  0  0  0  0
   23.5663   18.1859    6.1365 H   0  0  0  0  0  0  0  0  0  0  0  0
   23.6842   17.2705    4.5954 H   0  0  0  0  0  0  0  0  0  0  0  0
   23.8712   19.0571    4.5954 H   0  0  0  0  0  0  0  0  0  0  0  0
   21.5644   18.8546    6.8658 H   0  0  0  0  0  0  0  0  0  0  0  0
   21.7636   20.1931    5.8670 H   0  0  0  0  0  0  0  0  0  0  0  0
   20.3063   19.3532    5.8670 H   0  0  0  0  0  0  0  0  0  0  0  0
   19.4361   14.9766    3.1631 H   0  0  0  0  0  0  0  0  0  0  0  0
   20.1315   14.7433    4.8169 H   0  0  0  0  0  0  0  0  0  0  0  0
   18.7489   16.1076    6.7184 H   0  0  0  0  0  0  0  0  0  0  0  0
   16.4623   16.0925    7.7045 H   0  0  0  0  0  0  0  0  0  0  0  0
   14.5174   15.3467    6.3434 H   0  0  0  0  0  0  0  0  0  0  0  0
   17.1367   14.6507    2.9772 H   0  0  0  0  0  0  0  0  0  0  0  0
   13.6922   14.2347    4.4070 H   0  0  0  0  0  0  0  0  0  0  0  0
   14.2139   15.3651    3.1122 H   0  0  0  0  0  0  0  0  0  0  0  0
   14.8005   13.6673    3.1122 H   0  0  0  0  0  0  0  0  0  0  0  0
  2  1  1  0
  3  2  2  0
  5  4  1  0
  5  1  1  0
  6  2  1  0
  7  6  1  0
  8  6  1  0
  9  1  1  0
 10  9  1  0
 11 10  2  0
 12 11  1  0
 13 12  2  0
 14 13  1  0
 15 14  2  0
 15 10  1  0
 16 14  1  0
  4 17  1  0
  4 18  1  0
  4 19  1  0
  5 20  1  0
  5 21  1  0
  6 22  1  6
  7 23  1  0
  7 24  1  0
  7 25  1  0
  8 26  1  0
  8 27  1  0
  8 28  1  0
  9 29  1  0
  9 30  1  0
 11 31  1  0
 12 32  1  0
 13 33  1  0
 15 34  1  0
 16 35  1  0
 16 36  1  0
 16 37  1  0
M  CHG  1   8   1
M  END
$$$$
=
     RDKit          3D

 45 48  0  0  0  0  0  0  0  0999 V2000
   19.8030   16.6080    5.1110 C   0  0  0  0  0  0  0  0  0  0  0  0
   19.5290   15.2960    5.4460 C   0  0  0  0  0  0  0  0  0  0  0  0
   18.2200   14.8860    5.2840 N   0  0  0  0  0  0  0  0  0  0  0  0
   17.4980   15.8610    4.7810 C   0  0  0  0  0  0  0  0  0  0  0  0
   18.3540   17.3450    4.5600 S   0  0  0  0  0  0  0  0  0  0  0  0
   16.1720   15.8150    4.5060 N   0  0  0  0  0  0  0  0  0  0  0  0
   15.5580   14.6800    3.9380 C   0  0  0  0  0  0  0  0  0  0  0  0
   16.2630   13.8020    3.2020 N   0  0  0  0  0  0  0  0  0  0  0  0
   15.6210   12.7430    2.6710 C   0  0  0  0  0  0  0  0  0  0  0  0
   14.2710   12.4980    2.8440 C   0  0  0  0  0  0  0  0  0  0  0  0
   13.5220   13.3960    3.6060 C   0  0  0  0  0  0  0  0  0  0  0  0
   14.1850   14.5120    4.1390 C   0  0  0  0  0  0  0  0  0  0  0  0
   12.0570   13.1300    3.8760 C   0  0  2  0  0  0  0  0  0  0  0  0
   11.3310   12.4990    2.6710 C   0  0  0  0  0  0  0  0  0  0  0  0
    9.8270   12.7900    2.6590 C   0  0  0  0  0  0  0  0  0  0  0  0
    9.2630   12.9430    4.0590 C   0  0  0  0  0  0  0  0  0  0  0  0
    9.9250   14.0900    4.7560 N   0  0  0  0  0  4  0  0  0  0  0  0
   11.3400   14.3990    4.3530 C   0  0  0  0  0  0  0  0  0  0  0  0
   23.5110   18.7440    5.1750 C   0  0  0  0  0  0  0  0  0  0  0  0
   23.2660   17.7560    6.1250 C   0  0  0  0  0  0  0  0  0  0  0  0
   22.0560   17.0560    6.1140 C   0  0  0  0  0  0  0  0  0  0  0  0
   21.0750   17.3370    5.1500 C   0  0  0  0  0  0  0  0  0  0  0  0
   21.3400   18.3330    4.1970 C   0  0  0  0  0  0  0  0  0  0  0  0
   22.5490   19.0330    4.2110 C   0  0  0  0  0  0  0  0  0  0  0  0
   20.3089   14.6166    5.8204 H   0  0  0  0  0  0  0  0  0  0  0  0
   15.5918   16.6388    4.7196 H   0  0  0  0  0  0  0  0  0  0  0  0
   16.2037   12.0331    2.0656 H   0  0  0  0  0  0  0  0  0  0  0  0
   13.7977   11.6145    2.3908 H   0  0  0  0  0  0  0  0  0  0  0  0
   13.6213   15.2584    4.7179 H   0  0  0  0  0  0  0  0  0  0  0  0
   12.0198   12.3877    4.6869 H   0  0  0  0  0  0  0  0  0  0  0  0
   11.7729   12.8993    1.7466 H   0  0  0  0  0  0  0  0  0  0  0  0
   11.4546   11.4086    2.7465 H   0  0  0  0  0  0  0  0  0  0  0  0
    9.6507   13.7220    2.1020 H   0  0  0  0  0  0  0  0  0  0  0  0
    9.3213   11.9375    2.1819 H   0  0  0  0  0  0  0  0  0  0  0  0
    8.1808   13.1301    3.9971 H   0  0  0  0  0  0  0  0  0  0  0  0
    9.4505   12.0194    4.6263 H   0  0  0  0  0  0  0  0  0  0  0  0
    9.3589   14.9319    4.5783 H   0  0  0  0  0  0  0  0  0  0  0  0
    9.9804   13.8099    5.7456 H   0  0  0  0  0  0  0  0  0  0  0  0
   11.3302   15.1366    3.5370 H   0  0  0  0  0  0  0  0  0  0  0  0
   11.8762   14.8017    5.2250 H   0  0  0  0  0  0  0  0  0  0  0  0
   24.4629   19.2952    5.1861 H   0  0  0  0  0  0  0  0  0  0  0  0
   24.0263   17.5257    6.8859 H   0  0  0  0  0  0  0  0  0  0  0  0
   21.8707   16.2771    6.8683 H   0  0  0  0  0  0  0  0  0  0  0  0
   20.5866   18.5652    3.4299 H   0  0  0  0  0  0  0  0  0  0  0  0
   22.7410   19.8132    3.4597 H   0  0  0  0  0  0  0  0  0  0  0  0
  2  1  2  0
  3  2  1  0
  4  3  2  0
  5  4  1  0
  5  1  1  0
  6  4  1  0
  7  6  1  0
  8  7  2  0
  9  8  1  0
 10  9  2  0
 11 10  1  0
 12 11  2  0
 12  7  1  0
 13 11  1  0
 14 13  1  0
 15 14  1  0
 16 15  1  0
 17 16  1  0
 18 17  1  0
 18 13  1  0
 20 19  2  0
 21 20  1  0
 22  1  1  0
 22 21  2  0
 23 22  1  0
 24 23  2  0
 24 19  1  0
  2 25  1  0
  6 26  1  0
  9 27  1  0
 10 28  1  0
 12 29  1  0
 13 30  1  1
 14 31  1  0
 14 32  1  0
 15 33  1  0
 15 34  1  0
 16 35  1  0
 16 36  1  0
 17 37  1  0
 17 38  1  0
 18 39  1  0
 18 40  1  0
 19 41  1  0
 20 42  1  0
 21 43  1  0
 23 44  1  0
 24 45  1  0
M  CHG  1  17   1
M  END
$$$$
=
     RDKit          3D

 26 26  0  0  0  0  0  0  0  0999 V2000
   18.0980   14.0580    3.9840 C   0  0  1  0  0  0  0  0  0  0  0  0
   18.6320   13.0700    2.9520 N   0  0  0  0  0  4  0  0  0  0  0  0
   19.2440   14.9080    4.5080 C   0  0  0  0  0  0  0  0  0  0  0  0
   20.0960   15.3120    3.7100 O   0  0  0  0  0  0  0  0  0  0  0  0
   19.2180   15.1930    5.9960 C   0  0  0  0  0  0  0  0  0  0  0  0
   19.9830   16.2780    6.2830 F   0  0  0  0  0  0  0  0  0  0  0  0
   17.9790   15.4380    6.4760 F   0  0  0  0  0  0  0  0  0  0  0  0
   19.7380   14.1580    6.7000 F   0  0  0  0  0  0  0  0  0  0  0  0
   17.0000   14.9210    3.3430 C   0  0  0  0  0  0  0  0  0  0  0  0
   15.6190   14.3580    3.5680 C   0  0  0  0  0  0  0  0  0  0  0  0
   14.7040   15.0320    4.3900 C   0  0  0  0  0  0  0  0  0  0  0  0
   13.4100   14.5400    4.5560 C   0  0  0  0  0  0  0  0  0  0  0  0
   13.0200   13.3690    3.9110 C   0  0  0  0  0  0  0  0  0  0  0  0
   13.9270   12.6810    3.1080 C   0  0  0  0  0  0  0  0  0  0  0  0
   15.2230   13.1690    2.9390 C   0  0  0  0  0  0  0  0  0  0  0  0
   17.6553   13.5203    4.8354 H   0  0  0  0  0  0  0  0  0  0  0  0
   19.0646   12.2696    3.4347 H   0  0  0  0  0  0  0  0  0  0  0  0
   17.8562   12.7367    2.3622 H   0  0  0  0  0  0  0  0  0  0  0  0
   19.3358   13.5365    2.3622 H   0  0  0  0  0  0  0  0  0  0  0  0
   17.0450   15.9301    3.7785 H   0  0  0  0  0  0  0  0  0  0  0  0
   17.1806   14.9408    2.2581 H   0  0  0  0  0  0  0  0  0  0  0  0
   15.0090   15.9540    4.9066 H   0  0  0  0  0  0  0  0  0  0  0  0
   12.6961   15.0776    5.1974 H   0  0  0  0  0  0  0  0  0  0  0  0
   11.9959   12.9873    4.0356 H   0  0  0  0  0  0  0  0  0  0  0  0
   13.6207   11.7512    2.6063 H   0  0  0  0  0  0  0  0  0  0  0  0
   15.9375   12.6185    2.3094 H   0  0  0  0  0  0  0  0  0  0  0  0
  2  1  1  0
  3  1  1  0
  4  3  2  0
  5  3  1  0
  6  5  1  0
  7  5  1  0
  8  5  1  0
  9  1  1  0
 10  9  1  0
 11 10  2  0
 12 11  1  0
 13 12  2  0
 14 13  1  0
 15 14  2  0
 15 10  1  0
  1 16  1  1
  2 17  1  0
  2 18  1  0
  2 19  1  0
  9 20  1  0
  9 21  1  0
 11 22  1  0
 12 23  1  0
 13 24  1  0
 14 25  1  0
 15 26  1  0
M  CHG  1   2   1
M  END
$$$$
=
     RDKit          3D

 43 43  0  0  0  0  0  0  0  0999 V2000
   17.8570   16.1110    4.6990 C   0  0  1  0  0  0  0  0  0  0  0  0
   18.7200   17.1230    4.0820 N   0  0  0  0  0  0  0  0  0  0  0  0
   19.4930   16.7920    2.9990 C   0  0  0  0  0  0  0  0  0  0  0  0
   19.7050   15.6080    2.7430 O   0  0  0  0  0  0  0  0  0  0  0  0
   20.0950   17.9360    2.2370 C   0  0  0  0  0  0  0  0  0  0  0  0
   16.9030   16.6710    5.8170 C   0  0  0  0  0  0  0  0  0  0  0  0
   16.5730   15.7330    6.7260 F   0  0  0  0  0  0  0  0  0  0  0  0
   15.7650   17.1630    5.2750 F   0  0  0  0  0  0  0  0  0  0  0  0
   17.4790   17.7020    6.4750 F   0  0  0  0  0  0  0  0  0  0  0  0
   17.0350   15.4440    3.5770 N   0  0  0  0  0  4  0  0  0  0  0  0
   16.0080   14.3940    3.8770 C   0  0  0  0  0  0  0  0  0  0  0  0
   16.2580   13.2260    2.9040 C   0  0  0  0  0  0  0  0  0  0  0  0
   15.0260   12.3520    2.6600 C   0  0  0  0  0  0  0  0  0  0  0  0
   14.0420   12.4150    3.8170 C   0  0  0  0  0  0  0  0  0  0  0  0
   13.5400   13.8410    4.0470 C   0  0  0  0  0  0  0  0  0  0  0  0
   14.5860   14.9230    3.7530 C   0  0  0  0  0  0  0  0  0  0  0  0
   18.7290   15.1290    5.4990 C   0  0  0  0  0  0  0  0  0  0  0  0
   18.7310   13.9200    5.3060 O   0  0  0  0  0  0  0  0  0  0  0  0
   19.4840   15.7810    6.4310 O   0  0  0  0  0  0  0  0  0  0  0  0
   21.7810   16.4780    6.0390 C   0  0  0  0  0  0  0  0  0  0  0  0
   20.8640   15.3720    6.5250 C   0  0  0  0  0  0  0  0  0  0  0  0
   18.7455   18.0803    4.4612 H   0  0  0  0  0  0  0  0  0  0  0  0
   20.4873   18.6816    2.9442 H   0  0  0  0  0  0  0  0  0  0  0  0
   20.9143   17.5643    1.6041 H   0  0  0  0  0  0  0  0  0  0  0  0
   19.3247   18.4008    1.6041 H   0  0  0  0  0  0  0  0  0  0  0  0
   16.5398   16.2037    3.0886 H   0  0  0  0  0  0  0  0  0  0  0  0
   17.7521   14.9121    3.0634 H   0  0  0  0  0  0  0  0  0  0  0  0
   16.1072   14.0626    4.9212 H   0  0  0  0  0  0  0  0  0  0  0  0
   16.5849   13.6418    1.9395 H   0  0  0  0  0  0  0  0  0  0  0  0
   17.0216   12.5823    3.3651 H   0  0  0  0  0  0  0  0  0  0  0  0
   14.5212   12.6978    1.7459 H   0  0  0  0  0  0  0  0  0  0  0  0
   15.3643   11.3102    2.5594 H   0  0  0  0  0  0  0  0  0  0  0  0
   13.1833   11.7654    3.5920 H   0  0  0  0  0  0  0  0  0  0  0  0
   14.5581   12.0790    4.7284 H   0  0  0  0  0  0  0  0  0  0  0  0
   12.6717   14.0121    3.3937 H   0  0  0  0  0  0  0  0  0  0  0  0
   13.2879   13.9224    5.1146 H   0  0  0  0  0  0  0  0  0  0  0  0
   14.4338   15.2944    2.7288 H   0  0  0  0  0  0  0  0  0  0  0  0
   14.4583   15.7273    4.4925 H   0  0  0  0  0  0  0  0  0  0  0  0
   22.2148   17.0012    6.9039 H   0  0  0  0  0  0  0  0  0  0  0  0
   22.5880   16.0442    5.4303 H   0  0  0  0  0  0  0  0  0  0  0  0
   21.2052   17.1907    5.4303 H   0  0  0  0  0  0  0  0  0  0  0  0
   21.1018   15.1394    7.5735 H   0  0  0  0  0  0  0  0  0  0  0  0
   21.0148   14.4828    5.8952 H   0  0  0  0  0  0  0  0  0  0  0  0
  2  1  1  0
  3  2  1  0
  4  3  2  0
  5  3  1  0
  6  1  1  0
  7  6  1  0
  8  6  1  0
  9  6  1  0
 10  1  1  0
 11 10  1  0
 12 11  1  0
 13 12  1  0
 14 13  1  0
 15 14  1  0
 16 15  1  0
 16 11  1  0
  1 17  1  1
 18 17  2  0
 19 17  1  0
 21 19  1  0
 21 20  1  0
  2 22  1  0
  5 23  1  0
  5 24  1  0
  5 25  1  0
 10 26  1  0
 10 27  1  0
 11 28  1  0
 12 29  1  0
 12 30  1  0
 13 31  1  0
 13 32  1  0
 14 33  1  0
 14 34  1  0
 15 35  1  0
 15 36  1  0
 16 37  1  0
 16 38  1  0
 20 39  1  0
 20 40  1  0
 20 41  1  0
 21 42  1  0
 21 43  1  0
M  CHG  1  10   1
M  END
$$$$
=
     RDKit          3D

 31 31  0  0  0  0  0  0  0  0999 V2000
   19.2060   15.6080    4.2250 C   0  0  0  0  0  0  0  0  0  0  0  0
   17.7190   15.3620    4.2750 C   0  0  0  0  0  0  0  0  0  0  0  0
   16.8780   16.1910    5.0210 C   0  0  0  0  0  0  0  0  0  0  0  0
   15.4990   15.9840    5.0190 C   0  0  0  0  0  0  0  0  0  0  0  0
   14.9280   14.9380    4.2810 C   0  0  0  0  0  0  0  0  0  0  0  0
   15.7670   14.0760    3.5490 C   0  0  0  0  0  0  0  0  0  0  0  0
   17.1540   14.2950    3.5580 C   0  0  0  0  0  0  0  0  0  0  0  0
   15.2040   12.9100    2.7800 C   0  0  0  0  0  0  0  0  0  0  0  0
   13.4370   14.7370    4.3220 C   0  0  0  0  0  0  0  0  0  0  0  0
   19.8780   15.7600    5.5970 C   0  0  1  0  0  0  0  0  0  0  0  0
   19.6950   14.5440    6.4560 N   0  0  0  0  0  4  0  0  0  0  0  0
   21.3860   16.0520    5.5680 C   0  0  0  0  0  0  0  0  0  0  0  0
   21.8950   15.7420    6.8730 O   0  0  0  0  0  0  0  0  0  0  0  0
   19.6762   14.7602    3.7053 H   0  0  0  0  0  0  0  0  0  0  0  0
   19.3448   16.5665    3.7034 H   0  0  0  0  0  0  0  0  0  0  0  0
   17.3063   17.0125    5.6140 H   0  0  0  0  0  0  0  0  0  0  0  0
   14.8499   16.6512    5.6051 H   0  0  0  0  0  0  0  0  0  0  0  0
   17.8107   13.6176    2.9924 H   0  0  0  0  0  0  0  0  0  0  0  0
   14.8367   12.1492    3.4845 H   0  0  0  0  0  0  0  0  0  0  0  0
   14.3733   13.2551    2.1469 H   0  0  0  0  0  0  0  0  0  0  0  0
   15.9909   12.4740    2.1469 H   0  0  0  0  0  0  0  0  0  0  0  0
   13.1018   14.6918    5.3687 H   0  0  0  0  0  0  0  0  0  0  0  0
   12.9398   15.5762    3.8136 H   0  0  0  0  0  0  0  0  0  0  0  0
   13.1797   13.7961    3.8136 H   0  0  0  0  0  0  0  0  0  0  0  0
   19.3628   16.6388    6.0121 H   0  0  0  0  0  0  0  0  0  0  0  0
   19.7359   14.8156    7.4487 H   0  0  0  0  0  0  0  0  0  0  0  0
   18.7801   14.1159    6.2546 H   0  0  0  0  0  0  0  0  0  0  0  0
   20.4434   13.8656    6.2546 H   0  0  0  0  0  0  0  0  0  0  0  0
   21.8785   15.4242    4.8108 H   0  0  0  0  0  0  0  0  0  0  0  0
   21.5788   17.1037    5.3095 H   0  0  0  0  0  0  0  0  0  0  0  0
   21.2869   16.1123    7.5609 H   0  0  0  0  0  0  0  0  0  0  0  0
  2  1  1  0
  3  2  2  0
  4  3  1  0
  5  4  2  0
  6  5  1  0
  7  6  2  0
  7  2  1  0
  8  6  1  0
  9  5  1  0
 10  1  1  0
 11 10  1  0
 12 10  1  0
 13 12  1  0
  1 14  1  0
  1 15  1  0
  3 16  1  0
  4 17  1  0
  7 18  1  0
  8 19  1  0
  8 20  1  0
  8 21  1  0
  9 22  1  0
  9 23  1  0
  9 24  1  0
 10 25  1  1
 11 26  1  0
 11 27  1  0
 11 28  1  0
 12 29  1  0
 12 30  1  0
 13 31  1  0
M  CHG  1  11   1
M  END
$$$$
=
     RDKit          3D

 38 39  0  0  0  0  0  0  0  0999 V2000
   18.4950   14.6150    4.1670 S   0  0  0  0  0  6  0  0  0  0  0  0
   19.1250   13.9730    3.0390 O   0  0  0  0  0  0  0  0  0  0  0  0
   18.9140   14.4230    5.5350 O   0  0  0  0  0  0  0  0  0  0  0  0
   16.7560   14.3720    4.0560 C   0  0  0  0  0  0  0  0  0  0  0  0
   16.2370   13.4560    3.1320 C   0  0  0  0  0  0  0  0  0  0  0  0
   14.8530   13.3170    2.9900 C   0  0  0  0  0  0  0  0  0  0  0  0
   13.9830   14.0910    3.7600 C   0  0  0  0  0  0  0  0  0  0  0  0
   14.4890   15.0000    4.6890 C   0  0  0  0  0  0  0  0  0  0  0  0
   15.8770   15.1300    4.8340 C   0  0  0  0  0  0  0  0  0  0  0  0
   16.3620   16.0400    5.8540 N   0  0  0  0  0  4  0  0  0  0  0  0
   16.5080   15.5760    6.9910 O   0  0  0  0  0  0  0  0  0  0  0  0
   16.5560   17.2130    5.5140 O   0  0  0  0  0  1  0  0  0  0  0  0
   18.6900   16.3050    3.9450 N   0  0  0  0  0  0  0  0  0  0  0  0
   19.3940   18.7560    5.6870 C   0  0  0  0  0  0  0  0  0  0  0  0
   20.2860   17.5200    5.4960 C   0  0  2  0  0  0  0  0  0  0  0  0
   21.7680   17.8850    5.6750 C   0  0  0  0  0  0  0  0  0  0  0  0
   22.4880   17.9850    4.3640 N   0  0  0  0  0  4  0  0  0  0  0  0
   21.6940   18.5620    3.2450 C   0  0  0  0  0  0  0  0  0  0  0  0
   20.4630   17.7080    2.9650 C   0  0  0  0  0  0  0  0  0  0  0  0
   20.0760   16.8120    4.1470 C   0  0  2  0  0  0  0  0  0  0  0  0
   16.9174   12.8468    2.5189 H   0  0  0  0  0  0  0  0  0  0  0  0
   14.4474   12.5936    2.2674 H   0  0  0  0  0  0  0  0  0  0  0  0
   12.8956   13.9837    3.6337 H   0  0  0  0  0  0  0  0  0  0  0  0
   13.8065   15.6080    5.3009 H   0  0  0  0  0  0  0  0  0  0  0  0
   18.4025   16.5360    2.9833 H   0  0  0  0  0  0  0  0  0  0  0  0
   19.2566   18.9465    6.7616 H   0  0  0  0  0  0  0  0  0  0  0  0
   19.8717   19.6289    5.2181 H   0  0  0  0  0  0  0  0  0  0  0  0
   18.4151   18.5777    5.2181 H   0  0  0  0  0  0  0  0  0  0  0  0
   19.9829   16.8065    6.2764 H   0  0  0  0  0  0  0  0  0  0  0  0
   21.8345   18.8544    6.1907 H   0  0  0  0  0  0  0  0  0  0  0  0
   22.2444   17.0861    6.2623 H   0  0  0  0  0  0  0  0  0  0  0  0
   23.3199   18.5765    4.5021 H   0  0  0  0  0  0  0  0  0  0  0  0
   22.7106   17.0183    4.0867 H   0  0  0  0  0  0  0  0  0  0  0  0
   21.3745   19.5793    3.5153 H   0  0  0  0  0  0  0  0  0  0  0  0
   22.3209   18.5877    2.3415 H   0  0  0  0  0  0  0  0  0  0  0  0
   19.6177   18.3745    2.7386 H   0  0  0  0  0  0  0  0  0  0  0  0
   20.7043   17.0497    2.1174 H   0  0  0  0  0  0  0  0  0  0  0  0
   20.7459   15.9403    4.1836 H   0  0  0  0  0  0  0  0  0  0  0  0
  2  1  2  0
  3  1  2  0
  4  1  1  0
  5  4  2  0
  6  5  1  0
  7  6  2  0
  8  7  1  0
  9  8  2  0
  9  4  1  0
 10  9  1  0
 11 10  2  0
 12 10  1  0
 13  1  1  0
 15 14  1  0
 16 15  1  0
 17 16  1  0
 18 17  1  0
 19 18  1  0
 20 13  1  0
 20 19  1  0
 20 15  1  0
  5 21  1  0
  6 22  1  0
  7 23  1  0
  8 24  1  0
 13 25  1  0
 14 26  1  0
 14 27  1  0
 14 28  1  0
 15 29  1  1
 16 30  1  0
 16 31  1  0
 17 32  1  0
 17 33  1  0
 18 34  1  0
 18 35  1  0
 19 36  1  0
 19 37  1  0
 20 38  1  1
M  CHG  3  10   1  12  -1  17   1
M  END
$$$$
=
     RDKit          3D

 33 34  0  0  0  0  0  0  0  0999 V2000
   17.1530   14.3260    3.7680 C   0  0  0  0  0  0  0  0  0  0  0  0
   15.8160   13.9770    3.5390 C   0  0  0  0  0  0  0  0  0  0  0  0
   14.7870   14.6770    4.1870 C   0  0  0  0  0  0  0  0  0  0  0  0
   15.0780   15.7230    5.0670 C   0  0  0  0  0  0  0  0  0  0  0  0
   16.4090   16.0710    5.2940 C   0  0  0  0  0  0  0  0  0  0  0  0
   17.4610   15.3900    4.6540 C   0  0  0  0  0  0  0  0  0  0  0  0
   18.7710   15.8360    4.9630 N   0  0  0  0  0  0  0  0  0  0  0  0
   18.8490   17.3210    5.0140 C   0  0  0  0  0  0  0  0  0  0  0  0
   20.2530   17.7710    5.4870 C   0  0  0  0  0  0  0  0  0  0  0  0
   21.2250   16.6290    5.3400 N   0  0  0  0  0  4  0  0  0  0  0  0
   20.8700   15.4440    6.2080 C   0  0  0  0  0  0  0  0  0  0  0  0
   19.3470   15.1730    6.1580 C   0  0  0  0  0  0  0  0  0  0  0  0
   13.3870   14.3040    3.9410 N   0  0  0  0  0  4  0  0  0  0  0  0
   12.5070   15.0540    4.3820 O   0  0  0  0  0  0  0  0  0  0  0  0
   13.1760   13.2610    3.3070 O   0  0  0  0  0  1  0  0  0  0  0  0
   18.2090   12.2580    3.1740 C   0  0  0  0  0  0  0  0  0  0  0  0
   18.2210   13.6840    3.1880 O   0  0  0  0  0  0  0  0  0  0  0  0
   15.5726   13.1539    2.8510 H   0  0  0  0  0  0  0  0  0  0  0  0
   14.2666   16.2653    5.5745 H   0  0  0  0  0  0  0  0  0  0  0  0
   16.6411   16.8935    5.9865 H   0  0  0  0  0  0  0  0  0  0  0  0
   18.6564   17.7289    4.0107 H   0  0  0  0  0  0  0  0  0  0  0  0
   18.0963   17.6940    5.7242 H   0  0  0  0  0  0  0  0  0  0  0  0
   20.5908   18.6205    4.8752 H   0  0  0  0  0  0  0  0  0  0  0  0
   20.2031   18.0751    6.5429 H   0  0  0  0  0  0  0  0  0  0  0  0
   21.2308   16.3261    4.3556 H   0  0  0  0  0  0  0  0  0  0  0  0
   22.1501   16.9679    5.6403 H   0  0  0  0  0  0  0  0  0  0  0  0
   21.4079   14.5556    5.8455 H   0  0  0  0  0  0  0  0  0  0  0  0
   21.1585   15.6643    7.2464 H   0  0  0  0  0  0  0  0  0  0  0  0
   18.8723   15.5741    7.0656 H   0  0  0  0  0  0  0  0  0  0  0  0
   19.1669   14.0893    6.1013 H   0  0  0  0  0  0  0  0  0  0  0  0
   18.2058   11.8812    4.2074 H   0  0  0  0  0  0  0  0  0  0  0  0
   17.3078   11.9040    2.6519 H   0  0  0  0  0  0  0  0  0  0  0  0
   19.1041   11.8889    2.6519 H   0  0  0  0  0  0  0  0  0  0  0  0
  2  1  2  0
  3  2  1  0
  4  3  2  0
  5  4  1  0
  6  5  2  0
  6  1  1  0
  7  6  1  0
  8  7  1  0
  9  8  1  0
 10  9  1  0
 11 10  1  0
 12  7  1  0
 12 11  1  0
 13  3  1  0
 14 13  2  0
 15 13  1  0
 17 16  1  0
 17  1  1  0
  2 18  1  0
  4 19  1  0
  5 20  1  0
  8 21  1  0
  8 22  1  0
  9 23  1  0
  9 24  1  0
 10 25  1  0
 10 26  1  0
 11 27  1  0
 11 28  1  0
 12 29  1  0
 12 30  1  0
 16 31  1  0
 16 32  1  0
 16 33  1  0
M  CHG  3  10   1  13   1  15  -1
M  END
$$$$
=
     RDKit          3D

 40 40  0  0  0  0  0  0  0  0999 V2000
   18.0090   14.4900    3.8070 C   0  0  0  0  0  0  0  0  0  0  0  0
   17.9750   13.2460    3.1710 C   0  0  0  0  0  0  0  0  0  0  0  0
   16.7550   12.6310    2.8980 C   0  0  0  0  0  0  0  0  0  0  0  0
   15.5400   13.2520    3.2310 C   0  0  0  0  0  0  0  0  0  0  0  0
   15.5530   14.5220    3.8480 C   0  0  0  0  0  0  0  0  0  0  0  0
   16.7930   15.0890    4.1890 C   0  0  0  0  0  0  0  0  0  0  0  0
   14.2580   15.2350    4.1400 C   0  0  0  0  0  0  0  0  0  0  0  0
   14.2520   12.5540    2.8780 C   0  0  0  0  0  0  0  0  0  0  0  0
   16.8770   16.3080    4.8270 O   0  0  0  0  0  0  0  0  0  0  0  0
   16.8360   16.1290    6.2510 C   0  0  0  0  0  0  0  0  0  0  0  0
   19.3210   15.1730    4.0710 C   0  0  0  0  0  0  0  0  0  0  0  0
   19.6150   16.2020    3.0290 N   0  0  0  0  0  4  0  0  0  0  0  0
   19.8620   17.5720    3.5460 C   0  0  0  0  0  0  0  0  0  0  0  0
   20.1150   17.4930    5.0460 C   0  0  0  0  0  0  0  0  0  0  0  0
   22.1710   18.7520    4.3150 C   0  0  0  0  0  0  0  0  0  0  0  0
   21.2260   18.4530    5.4670 C   0  0  0  0  0  0  0  0  0  0  0  0
   18.9146   12.7507    2.8850 H   0  0  0  0  0  0  0  0  0  0  0  0
   16.7431   11.6433    2.4139 H   0  0  0  0  0  0  0  0  0  0  0  0
   14.1189   15.3116    5.2285 H   0  0  0  0  0  0  0  0  0  0  0  0
   14.2880   16.2437    3.7023 H   0  0  0  0  0  0  0  0  0  0  0  0
   13.4217   14.6702    3.7023 H   0  0  0  0  0  0  0  0  0  0  0  0
   13.7250   12.2684    3.8003 H   0  0  0  0  0  0  0  0  0  0  0  0
   13.6175   13.2317    2.2880 H   0  0  0  0  0  0  0  0  0  0  0  0
   14.4733   11.6524    2.2880 H   0  0  0  0  0  0  0  0  0  0  0  0
   17.0552   17.0859    6.7473 H   0  0  0  0  0  0  0  0  0  0  0  0
   15.8352   15.7825    6.5483 H   0  0  0  0  0  0  0  0  0  0  0  0
   17.5862   15.3815    6.5483 H   0  0  0  0  0  0  0  0  0  0  0  0
   19.2792   15.6616    5.0557 H   0  0  0  0  0  0  0  0  0  0  0  0
   20.1184   14.4157    4.0466 H   0  0  0  0  0  0  0  0  0  0  0  0
   20.4529   15.9009    2.5111 H   0  0  0  0  0  0  0  0  0  0  0  0
   18.7702   16.2653    2.4431 H   0  0  0  0  0  0  0  0  0  0  0  0
   20.7413   18.0031    3.0451 H   0  0  0  0  0  0  0  0  0  0  0  0
   18.9876   18.2093    3.3477 H   0  0  0  0  0  0  0  0  0  0  0  0
   19.1906   17.7566    5.5807 H   0  0  0  0  0  0  0  0  0  0  0  0
   20.4261   16.4676    5.2946 H   0  0  0  0  0  0  0  0  0  0  0  0
   23.1485   19.0613    4.7135 H   0  0  0  0  0  0  0  0  0  0  0  0
   22.2952   17.8493    3.6989 H   0  0  0  0  0  0  0  0  0  0  0  0
   21.7533   19.5619    3.6989 H   0  0  0  0  0  0  0  0  0  0  0  0
   20.7732   19.3945    5.8113 H   0  0  0  0  0  0  0  0  0  0  0  0
   21.8046   17.9784    6.2733 H   0  0  0  0  0  0  0  0  0  0  0  0
  2  1  2  0
  3  2  1  0
  4  3  2  0
  5  4  1  0
  6  5  2  0
  6  1  1  0
  7  5  1  0
  8  4  1  0
  9  6  1  0
 10  9  1  0
 11  1  1  0
 12 11  1  0
 13 12  1  0
 14 13  1  0
 16 14  1  0
 16 15  1  0
  2 17  1  0
  3 18  1  0
  7 19  1  0
  7 20  1  0
  7 21  1  0
  8 22  1  0
  8 23  1  0
  8 24  1  0
 10 25  1  0
 10 26  1  0
 10 27  1  0
 11 28  1  0
 11 29  1  0
 12 30  1  0
 12 31  1  0
 13 32  1  0
 13 33  1  0
 14 34  1  0
 14 35  1  0
 15 36  1  0
 15 37  1  0
 15 38  1  0
 16 39  1  0
 16 40  1  0
M  CHG  1  12   1
M  END
$$$$
=
     RDKit          3D

 49 51  0  0  0  0  0  0  0  0999 V2000
   13.2150   14.7030    4.2000 C   0  0  0  0  0  0  0  0  0  0  0  0
   14.1670   15.5540    4.7520 C   0  0  0  0  0  0  0  0  0  0  0  0
   15.5280   15.2790    4.5740 C   0  0  0  0  0  0  0  0  0  0  0  0
   16.5250   16.1980    5.1710 C   0  0  0  0  0  0  0  0  0  0  0  0
   16.1850   17.2720    5.6590 O   0  0  0  0  0  0  0  0  0  0  0  0
   17.8590   15.8120    5.0970 N   0  0  0  0  0  0  0  0  0  0  0  0
   18.3350   14.8410    4.2240 C   0  0  0  0  0  0  0  0  0  0  0  0
   19.5220   14.7670    3.9170 O   0  0  0  0  0  0  0  0  0  0  0  0
   17.3330   13.9310    3.6260 C   0  0  0  0  0  0  0  0  0  0  0  0
   15.9650   14.1720    3.8340 C   0  0  0  0  0  0  0  0  0  0  0  0
   15.0070   13.2990    3.2620 C   0  0  0  0  0  0  0  0  0  0  0  0
   13.6240   13.5490    3.4900 C   0  0  0  0  0  0  0  0  0  0  0  0
   15.4800   12.2230    2.4760 C   0  0  0  0  0  0  0  0  0  0  0  0
   16.8430   12.0000    2.2760 C   0  0  0  0  0  0  0  0  0  0  0  0
   17.7730   12.8530    2.8530 C   0  0  0  0  0  0  0  0  0  0  0  0
   12.6260   12.7580    2.8680 N   0  0  0  0  0  0  0  0  0  0  0  0
   11.1910   14.1070    5.3240 C   0  0  0  0  0  0  0  0  0  0  0  0
   11.8550   14.8630    4.3180 O   0  0  0  0  0  0  0  0  0  0  0  0
   18.8400   16.6960    5.7150 C   0  0  0  0  0  0  0  0  0  0  0  0
   19.3070   17.7950    4.7450 C   0  0  0  0  0  0  0  0  0  0  0  0
   20.7340   17.5400    4.2550 N   0  0  0  0  0  4  0  0  0  0  0  0
   20.9340   18.0380    2.8320 C   0  0  0  0  0  0  0  0  0  0  0  0
   19.8000   17.5570    1.9440 C   0  0  0  0  0  0  0  0  0  0  0  0
   21.7560   18.1340    5.2140 C   0  0  0  0  0  0  0  0  0  0  0  0
   22.7170   19.0360    4.4600 C   0  0  0  0  0  0  0  0  0  0  0  0
   13.8520   16.4383    5.3253 H   0  0  0  0  0  0  0  0  0  0  0  0
   14.7530   11.5424    2.0089 H   0  0  0  0  0  0  0  0  0  0  0  0
   17.1790   11.1508    1.6629 H   0  0  0  0  0  0  0  0  0  0  0  0
   18.8492   12.6819    2.7030 H   0  0  0  0  0  0  0  0  0  0  0  0
   11.6301   12.9531    3.0444 H   0  0  0  0  0  0  0  0  0  0  0  0
   12.8966   11.9881    2.2396 H   0  0  0  0  0  0  0  0  0  0  0  0
   11.5038   14.4631    6.3167 H   0  0  0  0  0  0  0  0  0  0  0  0
   10.1031   14.2294    5.2165 H   0  0  0  0  0  0  0  0  0  0  0  0
   11.4528   13.0440    5.2165 H   0  0  0  0  0  0  0  0  0  0  0  0
   18.3866   17.1694    6.5984 H   0  0  0  0  0  0  0  0  0  0  0  0
   19.7156   16.0927    5.9966 H   0  0  0  0  0  0  0  0  0  0  0  0
   18.6301   17.8182    3.8783 H   0  0  0  0  0  0  0  0  0  0  0  0
   19.2918   18.7565    5.2791 H   0  0  0  0  0  0  0  0  0  0  0  0
   20.8834   16.5210    4.2382 H   0  0  0  0  0  0  0  0  0  0  0  0
   20.9545   19.1378    2.8314 H   0  0  0  0  0  0  0  0  0  0  0  0
   21.8852   17.6445    2.4443 H   0  0  0  0  0  0  0  0  0  0  0  0
   18.9679   17.2040    2.5709 H   0  0  0  0  0  0  0  0  0  0  0  0
   19.4546   18.3861    1.3089 H   0  0  0  0  0  0  0  0  0  0  0  0
   20.1561   16.7324    1.3089 H   0  0  0  0  0  0  0  0  0  0  0  0
   21.2340   18.7213    5.9838 H   0  0  0  0  0  0  0  0  0  0  0  0
   22.3233   17.3182    5.6859 H   0  0  0  0  0  0  0  0  0  0  0  0
   23.3245   19.6062    5.1781 H   0  0  0  0  0  0  0  0  0  0  0  0
   23.3760   18.4227    3.8278 H   0  0  0  0  0  0  0  0  0  0  0  0
   22.1467   19.7325    3.8278 H   0  0  0  0  0  0  0  0  0  0  0  0
  2  1  2  0
  3  2  1  0
  4  3  1  0
  5  4  2  0
  6  4  1  0
  7  6  1  0
  8  7  2  0
  9  7  1  0
 10  3  2  0
 10  9  1  0
 11 10  1  0
 12 11  2  0
 12  1  1  0
 13 11  1  0
 14 13  2  0
 15 14  1  0
 15  9  2  0
 16 12  1  0
 18 17  1  0
 18  1  1  0
 19  6  1  0
 20 19  1  0
 21 20  1  0
 22 21  1  0
 23 22  1  0
 24 21  1  0
 25 24  1  0
  2 26  1  0
 13 27  1  0
 14 28  1  0
 15 29  1  0
 16 30  1  0
 16 31  1  0
 17 32  1  0
 17 33  1  0
 17 34  1  0
 19 35  1  0
 19 36  1  0
 20 37  1  0
 20 38  1  0
 21 39  1  0
 22 40  1  0
 22 41  1  0
 23 42  1  0
 23 43  1  0
 23 44  1  0
 24 45  1  0
 24 46  1  0
 25 47  1  0
 25 48  1  0
 25 49  1  0
M  CHG  1  21   1
M  END
$$$$
=
     RDKit          3D

 30 30  0  0  0  0  0  0  0  0999 V2000
   16.8350   15.8890    6.2060 N   0  0  0  0  0  4  0  0  0  0  0  0
   18.2800   16.2060    5.9330 C   0  0  0  0  0  0  0  0  0  0  0  0
   19.1570   14.9770    6.1380 C   0  0  0  0  0  0  0  0  0  0  0  0
   20.5950   15.3960    6.2720 C   0  0  0  0  0  0  0  0  0  0  0  0
   21.1620   15.4260    7.3600 O   0  0  0  0  0  0  0  0  0  0  0  0
   21.9260   16.8670    5.0240 C   0  0  0  0  0  0  0  0  0  0  0  0
   21.1430   15.6700    5.0680 O   0  0  0  0  0  0  0  0  0  0  0  0
   15.8750   16.2310    5.1150 C   0  0  0  0  0  0  0  0  0  0  0  0
   15.2790   15.0370    4.4360 C   0  0  0  0  0  0  0  0  0  0  0  0
   13.9670   14.6140    4.7010 C   0  0  0  0  0  0  0  0  0  0  0  0
   13.4360   13.5000    4.0420 C   0  0  0  0  0  0  0  0  0  0  0  0
   14.2030   12.8020    3.1070 C   0  0  0  0  0  0  0  0  0  0  0  0
   15.4990   13.2240    2.8360 C   0  0  0  0  0  0  0  0  0  0  0  0
   16.0290   14.3280    3.4920 C   0  0  0  0  0  0  0  0  0  0  0  0
   17.2680   14.7510    3.1980 F   0  0  0  0  0  0  0  0  0  0  0  0
   16.2310   12.5710    1.9260 F   0  0  0  0  0  0  0  0  0  0  0  0
   16.7622   14.8772    6.3847 H   0  0  0  0  0  0  0  0  0  0  0  0
   16.5671   16.4777    7.0076 H   0  0  0  0  0  0  0  0  0  0  0  0
   18.3823   16.5516    4.8937 H   0  0  0  0  0  0  0  0  0  0  0  0
   18.6053   16.9893    6.6335 H   0  0  0  0  0  0  0  0  0  0  0  0
   18.8426   14.4520    7.0521 H   0  0  0  0  0  0  0  0  0  0  0  0
   19.0524   14.3068    5.2720 H   0  0  0  0  0  0  0  0  0  0  0  0
   22.1441   17.2004    6.0493 H   0  0  0  0  0  0  0  0  0  0  0  0
   22.8695   16.6687    4.4944 H   0  0  0  0  0  0  0  0  0  0  0  0
   21.3663   17.6520    4.4944 H   0  0  0  0  0  0  0  0  0  0  0  0
   15.0580   16.8278    5.5468 H   0  0  0  0  0  0  0  0  0  0  0  0
   16.4425   16.7829    4.3512 H   0  0  0  0  0  0  0  0  0  0  0  0
   13.3528   15.1616    5.4310 H   0  0  0  0  0  0  0  0  0  0  0  0
   12.4091   13.1723    4.2615 H   0  0  0  0  0  0  0  0  0  0  0  0
   13.7851   11.9259    2.5895 H   0  0  0  0  0  0  0  0  0  0  0  0
  2  1  1  0
  3  2  1  0
  4  3  1  0
  5  4  2  0
  7  4  1  0
  7  6  1  0
  8  1  1  0
  9  8  1  0
 10  9  2  0
 11 10  1  0
 12 11  2  0
 13 12  1  0
 14 13  2  0
 14  9  1  0
 15 14  1  0
 16 13  1  0
  1 17  1  0
  1 18  1  0
  2 19  1  0
  2 20  1  0
  3 21  1  0
  3 22  1  0
  6 23  1  0
  6 24  1  0
  6 25  1  0
  8 26  1  0
  8 27  1  0
 10 28  1  0
 11 29  1  0
 12 30  1  0
M  CHG  1   1   1
M  END
$$$$
=
     RDKit          3D

 51 52  0  0  0  0  0  0  0  0999 V2000
   28.9650   25.6950   14.3120 S   0  0  0  0  0  6  0  0  0  0  0  0
   30.2100   26.0280   13.6600 O   0  0  0  0  0  0  0  0  0  0  0  0
   28.9620   24.6300   15.3070 O   0  0  0  0  0  0  0  0  0  0  0  0
   27.8030   24.2920   12.2290 C   0  0  0  0  0  0  0  0  0  0  0  0
   26.7690   24.0570   11.3230 C   0  0  0  0  0  0  0  0  0  0  0  0
   25.6110   24.8420   11.3480 C   0  0  0  0  0  0  0  0  0  0  0  0
   25.4700   25.8720   12.2760 C   0  0  0  0  0  0  0  0  0  0  0  0
   26.5180   26.1200   13.1710 C   0  0  0  0  0  0  0  0  0  0  0  0
   27.6980   25.3560   13.1260 C   0  0  0  0  0  0  0  0  0  0  0  0
   24.3180   26.6810   12.3810 N   0  0  0  0  0  0  0  0  0  0  0  0
   23.1280   26.3610   13.0130 C   0  0  0  0  0  0  0  0  0  0  0  0
   22.8420   25.2860   13.5280 O   0  0  0  0  0  0  0  0  0  0  0  0
   22.1300   27.4920   12.9750 C   0  0  0  0  0  0  0  0  0  0  0  0
   28.9090   22.5910   11.0950 C   0  0  0  0  0  0  0  0  0  0  0  0
   28.9460   23.5460   12.1610 O   0  0  0  0  0  0  0  0  0  0  0  0
   28.4790   27.0880   15.2160 N   0  0  0  0  0  0  0  0  0  0  0  0
   27.9640   26.8080   16.6190 C   0  0  2  0  0  0  0  0  0  0  0  0
   26.6210   26.0950   16.6030 C   0  0  0  0  0  0  0  0  0  0  0  0
   25.4130   27.3660   16.8100 S   0  0  0  0  0  6  0  0  0  0  0  0
   24.3880   26.8920   17.7120 O   0  0  0  0  0  0  0  0  0  0  0  0
   25.1070   27.8850   15.4900 O   0  0  0  0  0  0  0  0  0  0  0  0
   26.4420   28.5440   17.6490 C   0  0  0  0  0  0  0  0  0  0  0  0
   27.8700   28.0070   17.5960 C   0  0  2  0  0  0  0  0  0  0  0  0
   28.7720   29.0480   17.2290 O   0  0  0  0  0  0  0  0  0  0  0  0
   29.3000   28.3230   14.9830 C   0  0  0  0  0  0  0  0  0  0  0  0
   28.6220   29.2710   13.9650 C   0  0  0  0  0  0  0  0  0  0  0  0
   27.2500   29.6470   14.3870 N   0  0  0  0  0  4  0  0  0  0  0  0
   26.8646   23.2485   10.5833 H   0  0  0  0  0  0  0  0  0  0  0  0
   24.8036   24.6440   10.6277 H   0  0  0  0  0  0  0  0  0  0  0  0
   26.4172   26.9214   13.9177 H   0  0  0  0  0  0  0  0  0  0  0  0
   24.3679   27.6103   11.9396 H   0  0  0  0  0  0  0  0  0  0  0  0
   21.8702   27.7864   14.0025 H   0  0  0  0  0  0  0  0  0  0  0  0
   22.5696   28.3513   12.4474 H   0  0  0  0  0  0  0  0  0  0  0  0
   21.2227   27.1628   12.4474 H   0  0  0  0  0  0  0  0  0  0  0  0
   28.8696   21.5748   11.5143 H   0  0  0  0  0  0  0  0  0  0  0  0
   28.0170   22.7670   10.4758 H   0  0  0  0  0  0  0  0  0  0  0  0
   29.8119   22.6975   10.4758 H   0  0  0  0  0  0  0  0  0  0  0  0
   28.7613   26.1636   17.0178 H   0  0  0  0  0  0  0  0  0  0  0  0
   26.4726   25.5753   15.6449 H   0  0  0  0  0  0  0  0  0  0  0  0
   26.5528   25.3331   17.3935 H   0  0  0  0  0  0  0  0  0  0  0  0
   26.3866   29.5203   17.1453 H   0  0  0  0  0  0  0  0  0  0  0  0
   26.1129   28.6819   18.6895 H   0  0  0  0  0  0  0  0  0  0  0  0
   28.1535   27.6459   18.5956 H   0  0  0  0  0  0  0  0  0  0  0  0
   29.1382   29.4706   18.0460 H   0  0  0  0  0  0  0  0  0  0  0  0
   29.4251   28.8545   15.9379 H   0  0  0  0  0  0  0  0  0  0  0  0
   30.2745   28.0176   14.5742 H   0  0  0  0  0  0  0  0  0  0  0  0
   29.2280   30.1842   13.8714 H   0  0  0  0  0  0  0  0  0  0  0  0
   28.5497   28.7424   13.0030 H   0  0  0  0  0  0  0  0  0  0  0  0
   27.1989   29.6610   15.4156 H   0  0  0  0  0  0  0  0  0  0  0  0
   27.0217   30.5816   14.0191 H   0  0  0  0  0  0  0  0  0  0  0  0
   26.5771   28.9594   14.0191 H   0  0  0  0  0  0  0  0  0  0  0  0
  2  1  2  0
  3  1  2  0
  5  4  2  0
  6  5  1  0
  7  6  2  0
  8  7  1  0
  9  8  2  0
  9  4  1  0
  9  1  1  0
 10  7  1  0
 11 10  1  0
 12 11  2  0
 13 11  1  0
 15 14  1  0
 15  4  1  0
 16  1  1  0
 17 16  1  0
 18 17  1  0
 19 18  1  0
 20 19  2  0
 21 19  2  0
 22 19  1  0
 23 22  1  0
 23 17  1  0
 24 23  1  0
 25 16  1  0
 26 25  1  0
 27 26  1  0
  5 28  1  0
  6 29  1  0
  8 30  1  0
 10 31  1  0
 13 32  1  0
 13 33  1  0
 13 34  1  0
 14 35  1  0
 14 36  1  0
 14 37  1  0
 17 38  1  1
 18 39  1  0
 18 40  1  0
 22 41  1  0
 22 42  1  0
 23 43  1  1
 24 44  1  0
 25 45  1  0
 25 46  1  0
 26 47  1  0
 26 48  1  0
 27 49  1  0
 27 50  1  0
 27 51  1  0
M  CHG  1  27   1
M  END
$$$$
=
     RDKit          3D

 28 29  0  0  0  0  0  0  0  0999 V2000
   19.6000   16.1810    2.9100 N   0  0  0  0  0  4  0  0  0  0  0  0
   19.4300   15.2690    4.0680 C   0  0  0  0  0  0  0  0  0  0  0  0
   15.4170   15.4020    5.6170 C   0  0  0  0  0  0  0  0  0  0  0  0
   15.6400   14.9960    4.3030 C   0  0  0  0  0  0  0  0  0  0  0  0
   16.9380   14.9630    3.7910 C   0  0  0  0  0  0  0  0  0  0  0  0
   18.0250   15.3430    4.5930 C   0  0  0  0  0  0  0  0  0  0  0  0
   17.7890   15.7450    5.9170 C   0  0  0  0  0  0  0  0  0  0  0  0
   16.4890   15.7760    6.4240 C   0  0  0  0  0  0  0  0  0  0  0  0
   19.4080   17.6300    3.2070 C   0  0  0  0  0  0  0  0  0  0  0  0
   20.4990   18.0990    4.1070 C   0  0  0  0  0  0  0  0  0  0  0  0
   20.4840   18.4370    5.4410 C   0  0  0  0  0  0  0  0  0  0  0  0
   21.7700   18.8090    5.7340 N   0  0  0  0  0  0  0  0  0  0  0  0
   22.5070   18.6800    4.5890 C   0  0  0  0  0  0  0  0  0  0  0  0
   21.7720   18.2490    3.5870 N   0  0  0  0  0  0  0  0  0  0  0  0
   20.5541   16.0550    2.5430 H   0  0  0  0  0  0  0  0  0  0  0  0
   18.8625   15.9278    2.2371 H   0  0  0  0  0  0  0  0  0  0  0  0
   19.6444   14.2376    3.7512 H   0  0  0  0  0  0  0  0  0  0  0  0
   20.1245   15.5725    4.8652 H   0  0  0  0  0  0  0  0  0  0  0  0
   14.3929   15.4272    6.0177 H   0  0  0  0  0  0  0  0  0  0  0  0
   14.7916   14.7010    3.6680 H   0  0  0  0  0  0  0  0  0  0  0  0
   17.1096   14.6377    2.7543 H   0  0  0  0  0  0  0  0  0  0  0  0
   18.6334   16.0372    6.5586 H   0  0  0  0  0  0  0  0  0  0  0  0
   16.3109   16.0959    7.4613 H   0  0  0  0  0  0  0  0  0  0  0  0
   19.4340   18.2036    2.2688 H   0  0  0  0  0  0  0  0  0  0  0  0
   18.4357   17.7787    3.6995 H   0  0  0  0  0  0  0  0  0  0  0  0
   19.6235   18.4136    6.1258 H   0  0  0  0  0  0  0  0  0  0  0  0
   22.1181   19.1276    6.6495 H   0  0  0  0  0  0  0  0  0  0  0  0
   23.5805   18.9082    4.5153 H   0  0  0  0  0  0  0  0  0  0  0  0
  2  1  1  0
  4  3  2  0
  5  4  1  0
  6  5  2  0
  6  2  1  0
  7  6  1  0
  8  3  1  0
  8  7  2  0
  9  1  1  0
 10  9  1  0
 11 10  2  0
 12 11  1  0
 13 12  1  0
 14 10  1  0
 14 13  2  0
  1 15  1  0
  1 16  1  0
  2 17  1  0
  2 18  1  0
  3 19  1  0
  4 20  1  0
  5 21  1  0
  7 22  1  0
  8 23  1  0
  9 24  1  0
  9 25  1  0
 11 26  1  0
 12 27  1  0
 13 28  1  0
M  CHG  1   1   1
M  END
$$$$
=
     RDKit          3D

 22 22  0  0  0  0  0  0  0  0999 V2000
   20.0560   16.5580    5.0080 C   0  0  2  0  0  0  0  0  0  0  0  0
   18.7070   17.2500    5.2530 C   0  0  0  0  0  0  0  0  0  0  0  0
   17.5620   16.2680    5.5170 C   0  0  0  0  0  0  0  0  0  0  0  0
   17.4640   15.1940    4.4350 C   0  0  0  0  0  0  0  0  0  0  0  0
   18.8010   14.4820    4.2440 C   0  0  2  0  0  0  0  0  0  0  0  0
   19.9230   15.4750    3.9210 C   0  0  0  0  0  0  0  0  0  0  0  0
   18.6720   13.5070    3.1260 N   0  0  0  0  0  4  0  0  0  0  0  0
   21.0530   15.4090    7.1520 N   0  0  0  0  0  0  0  0  0  0  0  0
   20.5740   15.9510    6.2470 C   0  0  0  0  0  0  0  0  0  0  0  0
   20.7654   17.3266    4.6674 H   0  0  0  0  0  0  0  0  0  0  0  0
   18.8075   17.9120    6.1257 H   0  0  0  0  0  0  0  0  0  0  0  0
   18.4550   17.8061    4.3380 H   0  0  0  0  0  0  0  0  0  0  0  0
   17.7311   15.7790    6.4877 H   0  0  0  0  0  0  0  0  0  0  0  0
   16.6208   16.8373    5.5150 H   0  0  0  0  0  0  0  0  0  0  0  0
   16.7030   14.4562    4.7291 H   0  0  0  0  0  0  0  0  0  0  0  0
   17.1875   15.6779    3.4867 H   0  0  0  0  0  0  0  0  0  0  0  0
   19.0591   13.9672    5.1812 H   0  0  0  0  0  0  0  0  0  0  0  0
   20.8736   14.9266    3.8460 H   0  0  0  0  0  0  0  0  0  0  0  0
   19.6781   15.9716    2.9705 H   0  0  0  0  0  0  0  0  0  0  0  0
   18.5466   12.5594    3.5096 H   0  0  0  0  0  0  0  0  0  0  0  0
   17.8563   13.7539    2.5475 H   0  0  0  0  0  0  0  0  0  0  0  0
   19.5238   13.5333    2.5475 H   0  0  0  0  0  0  0  0  0  0  0  0
  2  1  1  0
  3  2  1  0
  4  3  1  0
  5  4  1  0
  6  5  1  0
  6  1  1  0
  7  5  1  0
  9  8  3  0
  9  1  1  0
  1 10  1  6
  2 11  1  0
  2 12  1  0
  3 13  1  0
  3 14  1  0
  4 15  1  0
  4 16  1  0
  5 17  1  1
  6 18  1  0
  6 19  1  0
  7 20  1  0
  7 21  1  0
  7 22  1  0
M  CHG  1   7   1
M  END
$$$$
=
     RDKit          3D

 43 46  0  0  0  0  0  0  0  0999 V2000
   14.8510   13.7250    3.5960 C   0  0  0  0  0  0  0  0  0  0  0  0
   15.5850   12.7410    3.0400 N   0  0  0  0  0  0  0  0  0  0  0  0
   16.9090   12.8740    3.0650 C   0  0  0  0  0  0  0  0  0  0  0  0
   17.6620   11.8720    2.4940 N   0  0  0  0  0  0  0  0  0  0  0  0
   17.5610   13.9260    3.5600 N   0  0  0  0  0  0  0  0  0  0  0  0
   16.8240   14.9110    4.1130 C   0  0  0  0  0  0  0  0  0  0  0  0
   15.4430   14.8470    4.1460 C   0  0  0  0  0  0  0  0  0  0  0  0
   17.5890   16.0550    4.6590 C   0  0  0  0  0  0  0  0  0  0  0  0
   16.9740   16.9640    5.5630 C   0  0  0  0  0  0  0  0  0  0  0  0
   17.6650   18.0560    6.1040 C   0  0  0  0  0  0  0  0  0  0  0  0
   18.9750   18.2310    5.7280 C   0  0  0  0  0  0  0  0  0  0  0  0
   19.5900   17.3720    4.8510 C   0  0  0  0  0  0  0  0  0  0  0  0
   18.9320   16.2880    4.3020 C   0  0  0  0  0  0  0  0  0  0  0  0
   20.8810   17.7220    4.6030 O   0  0  0  0  0  0  0  0  0  0  0  0
   21.0050   18.9030    5.4210 C   0  0  0  0  0  0  0  0  0  0  0  0
   19.8000   19.2270    6.1440 O   0  0  0  0  0  0  0  0  0  0  0  0
   11.1330   13.9990    4.4110 C   0  0  0  0  0  0  0  0  0  0  0  0
   12.5230   14.1820    4.4610 C   0  0  0  0  0  0  0  0  0  0  0  0
   13.3860   13.5320    3.5570 C   0  0  0  0  0  0  0  0  0  0  0  0
   12.8040   12.6760    2.6100 C   0  0  0  0  0  0  0  0  0  0  0  0
   11.4200   12.4870    2.5450 C   0  0  0  0  0  0  0  0  0  0  0  0
   10.5760   13.1480    3.4390 C   0  0  0  0  0  0  0  0  0  0  0  0
    9.9240   13.9490    6.4760 C   0  0  0  0  0  0  0  0  0  0  0  0
   10.2410   14.6090    5.2590 O   0  0  0  0  0  0  0  0  0  0  0  0
    9.2090   13.0280    3.4500 O   0  0  0  0  0  0  0  0  0  0  0  0
    8.6290   12.0260    2.6280 C   0  0  0  0  0  0  0  0  0  0  0  0
   18.6899   11.9373    2.4928 H   0  0  0  0  0  0  0  0  0  0  0  0
   17.1972   11.0574    2.0682 H   0  0  0  0  0  0  0  0  0  0  0  0
   14.8416   15.6537    4.5905 H   0  0  0  0  0  0  0  0  0  0  0  0
   15.9231   16.8049    5.8463 H   0  0  0  0  0  0  0  0  0  0  0  0
   17.1762   18.7487    6.8049 H   0  0  0  0  0  0  0  0  0  0  0  0
   19.4479   15.6183    3.5982 H   0  0  0  0  0  0  0  0  0  0  0  0
   21.8148   18.7407    6.1476 H   0  0  0  0  0  0  0  0  0  0  0  0
   21.2155   19.7455    4.7458 H   0  0  0  0  0  0  0  0  0  0  0  0
   12.9493   14.8492    5.2246 H   0  0  0  0  0  0  0  0  0  0  0  0
   13.4524   12.1403    1.9011 H   0  0  0  0  0  0  0  0  0  0  0  0
   10.9944   11.8143    1.7858 H   0  0  0  0  0  0  0  0  0  0  0  0
   10.2269   14.5797    7.3248 H   0  0  0  0  0  0  0  0  0  0  0  0
    8.8402   13.7669    6.5229 H   0  0  0  0  0  0  0  0  0  0  0  0
   10.4594   12.9892    6.5229 H   0  0  0  0  0  0  0  0  0  0  0  0
    8.1784   11.2476    3.2614 H   0  0  0  0  0  0  0  0  0  0  0  0
    7.8523   12.4770    1.9929 H   0  0  0  0  0  0  0  0  0  0  0  0
    9.4069   11.5771    1.9929 H   0  0  0  0  0  0  0  0  0  0  0  0
  2  1  2  0
  3  2  1  0
  4  3  1  0
  5  3  2  0
  6  5  1  0
  7  1  1  0
  7  6  2  0
  8  6  1  0
  9  8  2  0
 10  9  1  0
 11 10  2  0
 12 11  1  0
 13  8  1  0
 13 12  2  0
 14 12  1  0
 15 14  1  0
 16 15  1  0
 16 11  1  0
 18 17  2  0
 19 18  1  0
 19  1  1  0
 20 19  2  0
 21 20  1  0
 22 21  2  0
 22 17  1  0
 24 23  1  0
 24 17  1  0
 25 22  1  0
 26 25  1  0
  4 27  1  0
  4 28  1  0
  7 29  1  0
  9 30  1  0
 10 31  1  0
 13 32  1  0
 15 33  1  0
 15 34  1  0
 18 35  1  0
 20 36  1  0
 21 37  1  0
 23 38  1  0
 23 39  1  0
 23 40  1  0
 26 41  1  0
 26 42  1  0
 26 43  1  0
M  END
$$$$
=
     RDKit          3D

 43 45  0  0  0  0  0  0  0  0999 V2000
   19.7660   17.5010    1.9580 C   0  0  0  0  0  0  0  0  0  0  0  0
   20.0850   16.8230    3.2010 N   0  0  0  0  0  0  0  0  0  0  0  0
   19.4530   15.6530    3.5450 C   0  0  0  0  0  0  0  0  0  0  0  0
   18.5040   14.9870    2.8220 N   0  0  0  0  0  0  0  0  0  0  0  0
   18.2070   13.9250    3.5600 C   0  0  0  0  0  0  0  0  0  0  0  0
   18.9370   13.9030    4.7280 N   0  0  0  0  0  0  0  0  0  0  0  0
   19.7340   15.0110    4.7060 C   0  0  0  0  0  0  0  0  0  0  0  0
   20.6810   15.4720    5.6570 C   0  0  0  0  0  0  0  0  0  0  0  0
   20.9010   14.8530    6.6910 O   0  0  0  0  0  0  0  0  0  0  0  0
   21.2950   16.6620    5.2680 N   0  0  0  0  0  0  0  0  0  0  0  0
   21.0380   17.3670    4.0720 C   0  0  0  0  0  0  0  0  0  0  0  0
   21.6300   18.4160    3.8100 O   0  0  0  0  0  0  0  0  0  0  0  0
   22.2860   17.2410    6.1560 C   0  0  0  0  0  0  0  0  0  0  0  0
   17.2070   12.8920    3.1780 C   0  0  0  0  0  0  0  0  0  0  0  0
   15.9240   13.5620    2.7860 N   0  0  0  0  0  4  0  0  0  0  0  0
   14.7710   13.2860    3.6990 C   0  0  0  0  0  0  0  0  0  0  0  0
   14.1890   14.6050    4.2060 C   0  0  0  0  0  0  0  0  0  0  0  0
   15.2020   15.3510    5.0320 C   0  0  0  0  0  0  0  0  0  0  0  0
   15.8300   16.4960    4.5240 C   0  0  0  0  0  0  0  0  0  0  0  0
   16.7920   17.1670    5.2800 C   0  0  0  0  0  0  0  0  0  0  0  0
   17.1370   16.6990    6.5450 C   0  0  0  0  0  0  0  0  0  0  0  0
   16.5180   15.5610    7.0600 C   0  0  0  0  0  0  0  0  0  0  0  0
   15.5550   14.8880    6.3070 C   0  0  0  0  0  0  0  0  0  0  0  0
   19.3073   18.4760    2.1794 H   0  0  0  0  0  0  0  0  0  0  0  0
   20.6872   17.6528    1.3763 H   0  0  0  0  0  0  0  0  0  0  0  0
   19.0618   16.8881    1.3763 H   0  0  0  0  0  0  0  0  0  0  0  0
   18.8906   13.1912    5.4710 H   0  0  0  0  0  0  0  0  0  0  0  0
   21.9884   17.0671    7.2006 H   0  0  0  0  0  0  0  0  0  0  0  0
   23.2635   16.7719    5.9702 H   0  0  0  0  0  0  0  0  0  0  0  0
   22.3573   18.3229    5.9702 H   0  0  0  0  0  0  0  0  0  0  0  0
   17.5898   12.3068    2.3289 H   0  0  0  0  0  0  0  0  0  0  0  0
   17.0260   12.2223    4.0317 H   0  0  0  0  0  0  0  0  0  0  0  0
   16.0848   14.5793    2.7705 H   0  0  0  0  0  0  0  0  0  0  0  0
   15.6648   13.1791    1.8656 H   0  0  0  0  0  0  0  0  0  0  0  0
   13.9955   12.7306    3.1512 H   0  0  0  0  0  0  0  0  0  0  0  0
   15.1184   12.6881    4.5545 H   0  0  0  0  0  0  0  0  0  0  0  0
   13.8973   15.2253    3.3457 H   0  0  0  0  0  0  0  0  0  0  0  0
   13.3126   14.3866    4.8338 H   0  0  0  0  0  0  0  0  0  0  0  0
   15.5632   16.8679    3.5238 H   0  0  0  0  0  0  0  0  0  0  0  0
   17.2785   18.0670    4.8759 H   0  0  0  0  0  0  0  0  0  0  0  0
   17.8980   17.2272    7.1381 H   0  0  0  0  0  0  0  0  0  0  0  0
   16.7889   15.1933    8.0607 H   0  0  0  0  0  0  0  0  0  0  0  0
   15.0703   13.9893    6.7162 H   0  0  0  0  0  0  0  0  0  0  0  0
  2  1  1  0
  3  2  1  0
  4  3  1  0
  5  4  2  0
  6  5  1  0
  7  6  1  0
  7  3  2  0
  8  7  1  0
  9  8  2  0
 10  8  1  0
 11 10  1  0
 11  2  1  0
 12 11  2  0
 13 10  1  0
 14  5  1  0
 15 14  1  0
 16 15  1  0
 17 16  1  0
 18 17  1  0
 19 18  2  0
 20 19  1  0
 21 20  2  0
 22 21  1  0
 23 18  1  0
 23 22  2  0
  1 24  1  0
  1 25  1  0
  1 26  1  0
  6 27  1  0
 13 28  1  0
 13 29  1  0
 13 30  1  0
 14 31  1  0
 14 32  1  0
 15 33  1  0
 15 34  1  0
 16 35  1  0
 16 36  1  0
 17 37  1  0
 17 38  1  0
 19 39  1  0
 20 40  1  0
 21 41  1  0
 22 42  1  0
 23 43  1  0
M  CHG  1  15   1
M  END
$$$$
=
     RDKit          3D

 30 31  0  0  0  0  0  0  0  0999 V2000
   16.9220   13.9660    3.5040 N   0  0  0  0  0  0  0  0  0  0  0  0
   15.8390   14.6970    3.9420 C   0  0  0  0  0  0  0  0  0  0  0  0
   14.6110   14.1840    3.9250 C   0  0  0  0  0  0  0  0  0  0  0  0
   14.4940   12.8070    3.3740 C   0  0  0  0  0  0  0  0  0  0  0  0
   15.5070   12.1190    2.9510 N   0  0  0  0  0  0  0  0  0  0  0  0
   16.7640   12.6790    2.9730 C   0  0  0  0  0  0  0  0  0  0  0  0
   17.7260   12.0640    2.5150 O   0  0  0  0  0  0  0  0  0  0  0  0
   13.2520   12.2220    3.2880 N   0  0  0  0  0  0  0  0  0  0  0  0
   19.7620   15.0410    5.1780 C   0  0  1  0  0  0  0  0  0  0  0  0
   19.0950   13.9500    4.5120 O   0  0  0  0  0  0  0  0  0  0  0  0
   18.2670   14.5240    3.4750 C   0  0  2  0  0  0  0  0  0  0  0  0
   18.2830   16.0410    3.6550 C   0  0  0  0  0  0  0  0  0  0  0  0
   18.8000   16.2140    5.0660 C   0  0  2  0  0  0  0  0  0  0  0  0
   19.4240   17.4750    5.2580 O   0  0  0  0  0  0  0  0  0  0  0  0
   20.1240   14.6550    6.6100 C   0  0  0  0  0  0  0  0  0  0  0  0
   21.2190   15.4310    7.0920 O   0  0  0  0  0  0  0  0  0  0  0  0
   13.5070   14.8300    4.4230 O   0  0  0  0  0  0  0  0  0  0  0  0
   15.9920   15.7216    4.3118 H   0  0  0  0  0  0  0  0  0  0  0  0
   13.1567   11.2692    2.9085 H   0  0  0  0  0  0  0  0  0  0  0  0
   12.4173   12.7368    3.6031 H   0  0  0  0  0  0  0  0  0  0  0  0
   20.7278   15.3094    4.7250 H   0  0  0  0  0  0  0  0  0  0  0  0
   18.6634   14.2761    2.4793 H   0  0  0  0  0  0  0  0  0  0  0  0
   18.9556   16.5179    2.9268 H   0  0  0  0  0  0  0  0  0  0  0  0
   17.2988   16.5056    3.4953 H   0  0  0  0  0  0  0  0  0  0  0  0
   18.0189   16.2113    5.8405 H   0  0  0  0  0  0  0  0  0  0  0  0
   19.5130   17.6549    6.2274 H   0  0  0  0  0  0  0  0  0  0  0  0
   19.2517   14.8237    7.2585 H   0  0  0  0  0  0  0  0  0  0  0  0
   20.4166   13.5947    6.6216 H   0  0  0  0  0  0  0  0  0  0  0  0
   21.2150   15.4282    8.0820 H   0  0  0  0  0  0  0  0  0  0  0  0
   12.6185   14.3954    4.3813 H   0  0  0  0  0  0  0  0  0  0  0  0
  2  1  1  0
  3  2  2  0
  4  3  1  0
  5  4  2  0
  6  5  1  0
  6  1  1  0
  7  6  2  0
  8  4  1  0
 10  9  1  0
 11 10  1  0
 11  1  1  0
 12 11  1  0
 13 12  1  0
 13  9  1  0
 14 13  1  0
 15  9  1  0
 16 15  1  0
 17  3  1  0
  2 18  1  0
  8 19  1  0
  8 20  1  0
  9 21  1  6
 11 22  1  6
 12 23  1  0
 12 24  1  0
 13 25  1  1
 14 26  1  0
 15 27  1  0
 15 28  1  0
 16 29  1  0
 17 30  1  0
M  END
$$$$
=
     RDKit          3D

 38 40  0  0  0  0  0  0  0  0999 V2000
   19.6010   15.2150    4.8970 C   0  0  0  0  0  0  0  0  0  0  0  0
   20.2870   16.1330    3.8810 N   0  0  0  0  0  4  0  0  0  0  0  0
   19.2790   16.8090    2.9630 C   0  0  0  0  0  0  0  0  0  0  0  0
   19.9820   17.6000    1.8260 C   0  0  0  0  0  0  0  0  0  0  0  0
   21.3390   18.1240    2.2320 N   0  0  0  0  0  4  0  0  0  0  0  0
   21.4870   18.4030    3.7030 C   0  0  0  0  0  0  0  0  0  0  0  0
   21.2430   17.1300    4.5560 C   0  0  0  0  0  0  0  0  0  0  0  0
   17.2110   16.8220    6.1020 C   0  0  0  0  0  0  0  0  0  0  0  0
   17.1530   15.8070    5.0720 N   0  0  0  0  0  0  0  0  0  0  0  0
   15.9810   15.5720    4.4740 N   0  0  0  0  0  0  0  0  0  0  0  0
   16.1970   14.4870    3.7380 C   0  0  0  0  0  0  0  0  0  0  0  0
   17.5470   14.0990    3.7560 C   0  0  0  0  0  0  0  0  0  0  0  0
   18.1750   15.0360    4.5610 C   0  0  0  0  0  0  0  0  0  0  0  0
   15.0800   13.7560    2.9530 C   0  0  0  0  0  0  0  0  0  0  0  0
   14.2600   12.6930    3.6370 C   0  0  0  0  0  0  0  0  0  0  0  0
   15.2650   12.3040    2.5920 C   0  0  0  0  0  0  0  0  0  0  0  0
   20.0990   14.2342    4.8910 H   0  0  0  0  0  0  0  0  0  0  0  0
   19.6738   15.6747    5.8937 H   0  0  0  0  0  0  0  0  0  0  0  0
   20.8754   15.5388    3.2797 H   0  0  0  0  0  0  0  0  0  0  0  0
   18.6318   16.0402    2.5157 H   0  0  0  0  0  0  0  0  0  0  0  0
   18.6895   17.5185    3.5623 H   0  0  0  0  0  0  0  0  0  0  0  0
   20.1070   16.9340    0.9595 H   0  0  0  0  0  0  0  0  0  0  0  0
   19.3498   18.4674    1.5853 H   0  0  0  0  0  0  0  0  0  0  0  0
   22.0467   17.4250    1.9646 H   0  0  0  0  0  0  0  0  0  0  0  0
   21.4604   19.0260    1.7497 H   0  0  0  0  0  0  0  0  0  0  0  0
   22.5056   18.7711    3.8953 H   0  0  0  0  0  0  0  0  0  0  0  0
   20.7359   19.1550    3.9866 H   0  0  0  0  0  0  0  0  0  0  0  0
   20.8112   17.4318    5.5217 H   0  0  0  0  0  0  0  0  0  0  0  0
   22.2123   16.6253    4.6814 H   0  0  0  0  0  0  0  0  0  0  0  0
   17.1836   16.3423    7.0915 H   0  0  0  0  0  0  0  0  0  0  0  0
   18.1434   17.3964    5.9987 H   0  0  0  0  0  0  0  0  0  0  0  0
   16.3501   17.4988    5.9987 H   0  0  0  0  0  0  0  0  0  0  0  0
   18.0050   13.2401    3.2437 H   0  0  0  0  0  0  0  0  0  0  0  0
   14.8493   14.6771    2.3977 H   0  0  0  0  0  0  0  0  0  0  0  0
   14.4449   12.4516    4.6941 H   0  0  0  0  0  0  0  0  0  0  0  0
   13.1843   12.5164    3.7842 H   0  0  0  0  0  0  0  0  0  0  0  0
   16.1860   11.7780    2.8838 H   0  0  0  0  0  0  0  0  0  0  0  0
   15.2300   11.7249    1.6574 H   0  0  0  0  0  0  0  0  0  0  0  0
  2  1  1  0
  3  2  1  0
  4  3  1  0
  5  4  1  0
  6  5  1  0
  7  2  1  0
  7  6  1  0
  9  8  1  0
 10  9  1  0
 11 10  2  0
 12 11  1  0
 13 12  2  0
 13  9  1  0
 13  1  1  0
 14 11  1  0
 15 14  1  0
 16 15  1  0
 16 14  1  0
  1 17  1  0
  1 18  1  0
  2 19  1  0
  3 20  1  0
  3 21  1  0
  4 22  1  0
  4 23  1  0
  5 24  1  0
  5 25  1  0
  6 26  1  0
  6 27  1  0
  7 28  1  0
  7 29  1  0
  8 30  1  0
  8 31  1  0
  8 32  1  0
 12 33  1  0
 14 34  1  0
 15 35  1  0
 15 36  1  0
 16 37  1  0
 16 38  1  0
M  CHG  2   2   1   5   1
M  END
$$$$
=
     RDKit          3D

 42 44  0  0  0  0  0  0  0  0999 V2000
   15.8910   15.2350    4.9490 C   0  0  0  0  0  0  0  0  0  0  0  0
   16.6410   14.5960    3.9840 C   0  0  0  0  0  0  0  0  0  0  0  0
   15.9520   13.7570    3.1460 C   0  0  0  0  0  0  0  0  0  0  0  0
   14.6280   13.5490    3.2370 N   0  0  0  0  0  0  0  0  0  0  0  0
   13.9570   14.2030    4.1880 C   0  0  0  0  0  0  0  0  0  0  0  0
   14.5580   15.0380    5.0630 N   0  0  0  0  0  0  0  0  0  0  0  0
   12.5950   14.0760    4.3490 N   0  0  0  0  0  0  0  0  0  0  0  0
   11.6380   13.3840    3.6380 C   0  0  0  0  0  0  0  0  0  0  0  0
   11.9550   12.5200    2.6650 N   0  0  0  0  0  0  0  0  0  0  0  0
   10.9460   11.8960    2.0290 C   0  0  0  0  0  0  0  0  0  0  0  0
    9.6250   12.0960    2.3300 C   0  0  0  0  0  0  0  0  0  0  0  0
    9.3910   12.9890    3.3450 C   0  0  0  0  0  0  0  0  0  0  0  0
   10.3680   13.6360    4.0120 N   0  0  0  0  0  0  0  0  0  0  0  0
   19.5670   16.1460    5.5960 C   0  0  2  0  0  0  0  0  0  0  0  0
   18.8540   14.9960    6.3270 C   0  0  0  0  0  0  0  0  0  0  0  0
   17.5070   15.3970    6.9280 C   0  0  0  0  0  0  0  0  0  0  0  0
   16.5730   16.1430    5.9610 C   0  0  1  0  0  0  0  0  0  0  0  0
   17.3150   17.2940    5.2680 C   0  0  0  0  0  0  0  0  0  0  0  0
   18.6290   16.8660    4.6150 C   0  0  0  0  0  0  0  0  0  0  0  0
   20.8160   15.5880    4.9010 C   0  0  0  0  0  0  0  0  0  0  0  0
   21.8950   15.3150    5.8800 N   0  0  0  0  0  4  0  0  0  0  0  0
   17.7263   14.7500    3.8920 H   0  0  0  0  0  0  0  0  0  0  0  0
   16.5114   13.2281    2.3603 H   0  0  0  0  0  0  0  0  0  0  0  0
   12.2201   14.5975    5.1542 H   0  0  0  0  0  0  0  0  0  0  0  0
   11.1957   11.1880    1.2250 H   0  0  0  0  0  0  0  0  0  0  0  0
    8.8126   11.5794    1.7979 H   0  0  0  0  0  0  0  0  0  0  0  0
    8.3476   13.1883    3.6307 H   0  0  0  0  0  0  0  0  0  0  0  0
   19.8755   16.9083    6.3266 H   0  0  0  0  0  0  0  0  0  0  0  0
   18.6858   14.1790    5.6099 H   0  0  0  0  0  0  0  0  0  0  0  0
   19.5028   14.6920    7.1617 H   0  0  0  0  0  0  0  0  0  0  0  0
   16.9950   14.4831    7.2635 H   0  0  0  0  0  0  0  0  0  0  0  0
   17.7268   16.0940    7.7501 H   0  0  0  0  0  0  0  0  0  0  0  0
   15.7629   16.5618    6.5761 H   0  0  0  0  0  0  0  0  0  0  0  0
   16.6596   17.7125    4.4900 H   0  0  0  0  0  0  0  0  0  0  0  0
   17.5646   18.0323    6.0443 H   0  0  0  0  0  0  0  0  0  0  0  0
   19.1400   17.7612    4.2311 H   0  0  0  0  0  0  0  0  0  0  0  0
   18.3860   16.1607    3.8066 H   0  0  0  0  0  0  0  0  0  0  0  0
   20.5528   14.6521    4.3864 H   0  0  0  0  0  0  0  0  0  0  0  0
   21.1788   16.3365    4.1812 H   0  0  0  0  0  0  0  0  0  0  0  0
   21.5231   15.4091    6.8359 H   0  0  0  0  0  0  0  0  0  0  0  0
   22.2495   14.3578    5.7422 H   0  0  0  0  0  0  0  0  0  0  0  0
   22.6621   15.9884    5.7422 H   0  0  0  0  0  0  0  0  0  0  0  0
  2  1  2  0
  3  2  1  0
  4  3  2  0
  5  4  1  0
  6  5  2  0
  6  1  1  0
  7  5  1  0
  8  7  1  0
  9  8  2  0
 10  9  1  0
 11 10  2  0
 12 11  1  0
 13 12  2  0
 13  8  1  0
 15 14  1  0
 16 15  1  0
 17  1  1  0
 17 16  1  0
 18 17  1  0
 19 14  1  0
 19 18  1  0
 20 14  1  0
 21 20  1  0
  2 22  1  0
  3 23  1  0
  7 24  1  0
 10 25  1  0
 11 26  1  0
 12 27  1  0
 14 28  1  1
 15 29  1  0
 15 30  1  0
 16 31  1  0
 16 32  1  0
 17 33  1  1
 18 34  1  0
 18 35  1  0
 19 36  1  0
 19 37  1  0
 20 38  1  0
 20 39  1  0
 21 40  1  0
 21 41  1  0
 21 42  1  0
M  CHG  1  21   1
M  END
$$$$
=
     RDKit          3D

 36 37  0  0  0  0  0  0  0  0999 V2000
   18.2070   15.6860    4.2020 C   0  0  0  0  0  0  0  0  0  0  0  0
   16.9060   15.5520    3.7010 C   0  0  0  0  0  0  0  0  0  0  0  0
   15.7850   15.5280    4.5420 C   0  0  0  0  0  0  0  0  0  0  0  0
   16.0140   15.7120    5.9110 C   0  0  0  0  0  0  0  0  0  0  0  0
   17.3090   15.8490    6.4260 C   0  0  0  0  0  0  0  0  0  0  0  0
   18.4210   15.8180    5.5810 C   0  0  0  0  0  0  0  0  0  0  0  0
   14.4040   15.3080    3.9840 C   0  0  2  0  0  0  0  0  0  0  0  0
   13.3250   14.6430    4.8150 C   0  0  0  0  0  0  0  0  0  0  0  0
   13.8930   13.9180    3.6220 C   0  0  2  0  0  0  0  0  0  0  0  0
   14.6830   12.6410    3.7400 C   0  0  2  0  0  0  0  0  0  0  0  0
   15.4660   12.3760    2.4530 C   0  0  0  0  0  0  0  0  0  0  0  0
   13.9040   11.4090    4.0300 N   0  0  0  0  0  4  0  0  0  0  0  0
   19.5270   16.8320    2.6130 C   0  0  0  0  0  0  0  0  0  0  0  0
   19.1780   15.5980    3.2380 O   0  0  0  0  0  0  0  0  0  0  0  0
   19.7130   15.8480    6.0240 O   0  0  0  0  0  0  0  0  0  0  0  0
   20.2630   14.6410    6.5400 C   0  0  0  0  0  0  0  0  0  0  0  0
   16.7595   15.4629    2.6144 H   0  0  0  0  0  0  0  0  0  0  0  0
   15.1561   15.7498    6.5985 H   0  0  0  0  0  0  0  0  0  0  0  0
   17.4523   15.9826    7.5084 H   0  0  0  0  0  0  0  0  0  0  0  0
   14.5068   16.2612    3.4447 H   0  0  0  0  0  0  0  0  0  0  0  0
   13.5547   14.2905    5.8314 H   0  0  0  0  0  0  0  0  0  0  0  0
   12.3127   14.9259    5.1394 H   0  0  0  0  0  0  0  0  0  0  0  0
   13.4923   13.4657    2.7029 H   0  0  0  0  0  0  0  0  0  0  0  0
   15.3284   12.8266    4.6112 H   0  0  0  0  0  0  0  0  0  0  0  0
   16.4802   12.0327    2.7050 H   0  0  0  0  0  0  0  0  0  0  0  0
   14.9525   11.6016    1.8643 H   0  0  0  0  0  0  0  0  0  0  0  0
   15.5283   13.3031    1.8643 H   0  0  0  0  0  0  0  0  0  0  0  0
   13.8253   11.2846    5.0494 H   0  0  0  0  0  0  0  0  0  0  0  0
   12.9626   11.4938    3.6208 H   0  0  0  0  0  0  0  0  0  0  0  0
   14.3842   10.5949    3.6208 H   0  0  0  0  0  0  0  0  0  0  0  0
   19.7404   17.5864    3.3846 H   0  0  0  0  0  0  0  0  0  0  0  0
   20.4191   16.6861    1.9862 H   0  0  0  0  0  0  0  0  0  0  0  0
   18.6906   17.1750    1.9862 H   0  0  0  0  0  0  0  0  0  0  0  0
   20.2488   14.6722    7.6395 H   0  0  0  0  0  0  0  0  0  0  0  0
   19.6654   13.7865    6.1897 H   0  0  0  0  0  0  0  0  0  0  0  0
   21.2999   14.5314    6.1897 H   0  0  0  0  0  0  0  0  0  0  0  0
  2  1  2  0
  3  2  1  0
  4  3  2  0
  5  4  1  0
  6  1  1  0
  6  5  2  0
  7  3  1  0
  8  7  1  0
  9  8  1  0
  9  7  1  0
 10  9  1  0
 11 10  1  0
 12 10  1  0
 14  1  1  0
 14 13  1  0
 15  6  1  0
 16 15  1  0
  2 17  1  0
  4 18  1  0
  5 19  1  0
  7 20  1  6
  8 21  1  0
  8 22  1  0
  9 23  1  6
 10 24  1  1
 11 25  1  0
 11 26  1  0
 11 27  1  0
 12 28  1  0
 12 29  1  0
 12 30  1  0
 13 31  1  0
 13 32  1  0
 13 33  1  0
 16 34  1  0
 16 35  1  0
 16 36  1  0
M  CHG  1  12   1
M  END
$$$$
=
     RDKit          3D

 21 21  0  0  0  0  0  0  0  0999 V2000
   19.2200   16.5460    4.3010 C   0  0  1  0  0  0  0  0  0  0  0  0
   19.4730   18.0310    4.5420 C   0  0  0  0  0  0  0  0  0  0  0  0
   17.7950   16.2020    4.5680 C   0  0  0  0  0  0  0  0  0  0  0  0
   16.8870   16.5710    5.5370 C   0  0  0  0  0  0  0  0  0  0  0  0
   15.6830   15.8890    5.2320 C   0  0  0  0  0  0  0  0  0  0  0  0
   15.9320   15.1490    4.1000 C   0  0  0  0  0  0  0  0  0  0  0  0
   17.2160   15.3270    3.6910 O   0  0  0  0  0  0  0  0  0  0  0  0
   19.6690   17.4260    1.9800 C   0  0  0  0  0  0  0  0  0  0  0  0
   19.5920   16.2430    2.8740 N   0  0  0  0  0  4  0  0  0  0  0  0
   19.8297   15.9387    4.9862 H   0  0  0  0  0  0  0  0  0  0  0  0
   19.5063   18.2264    5.6240 H   0  0  0  0  0  0  0  0  0  0  0  0
   20.4330   18.3178    4.0879 H   0  0  0  0  0  0  0  0  0  0  0  0
   18.6622   18.6195    4.0879 H   0  0  0  0  0  0  0  0  0  0  0  0
   17.0619   17.2574    6.3786 H   0  0  0  0  0  0  0  0  0  0  0  0
   14.7366   15.9412    5.7902 H   0  0  0  0  0  0  0  0  0  0  0  0
   15.1963   14.5044    3.5968 H   0  0  0  0  0  0  0  0  0  0  0  0
   19.7286   18.3412    2.5873 H   0  0  0  0  0  0  0  0  0  0  0  0
   20.5640   17.3482    1.3452 H   0  0  0  0  0  0  0  0  0  0  0  0
   18.7715   17.4649    1.3452 H   0  0  0  0  0  0  0  0  0  0  0  0
   18.8867   15.5980    2.4901 H   0  0  0  0  0  0  0  0  0  0  0  0
   20.5404   15.8423    2.9030 H   0  0  0  0  0  0  0  0  0  0  0  0
  2  1  1  0
  3  1  1  0
  4  3  2  0
  5  4  1  0
  6  5  2  0
  7  6  1  0
  7  3  1  0
  9  8  1  0
  9  1  1  0
  1 10  1  1
  2 11  1  0
  2 12  1  0
  2 13  1  0
  4 14  1  0
  5 15  1  0
  6 16  1  0
  8 17  1  0
  8 18  1  0
  8 19  1  0
  9 20  1  0
  9 21  1  0
M  CHG  1   9   1
M  END
$$$$
=
     RDKit          3D

 49 50  0  0  0  0  0  0  0  0999 V2000
   18.2280   15.6280    5.5010 N   0  0  1  0  0  4  0  0  0  0  0  0
   19.2850   14.5420    5.4800 C   0  0  0  0  0  0  0  0  0  0  0  0
   20.5490   15.0530    6.1480 C   0  0  0  0  0  0  0  0  0  0  0  0
   21.1690   16.1960    5.3310 C   0  0  1  0  0  0  0  0  0  0  0  0
   20.0940   17.1200    4.7040 C   0  0  1  0  0  0  0  0  0  0  0  0
   18.7570   17.0490    5.4450 C   0  0  0  0  0  0  0  0  0  0  0  0
   20.5590   18.5840    4.6010 C   0  0  0  0  0  0  0  0  0  0  0  0
   22.0390   18.6730    4.2580 C   0  0  0  0  0  0  0  0  0  0  0  0
   22.9130   18.0420    5.3420 C   0  0  0  0  0  0  0  0  0  0  0  0
   22.1900   16.9740    6.1660 C   0  0  0  0  0  0  0  0  0  0  0  0
   17.0340   15.3450    4.6140 C   0  0  0  0  0  0  0  0  0  0  0  0
   15.6950   15.7100    5.2600 C   0  0  0  0  0  0  0  0  0  0  0  0
   14.5370   15.5570    4.2610 C   0  0  0  0  0  0  0  0  0  0  0  0
   13.6150   14.3870    4.6270 C   0  0  0  0  0  0  0  0  0  0  0  0
   13.5310   13.3490    3.5000 C   0  0  0  0  0  0  0  0  0  0  0  0
   14.7110   12.3810    3.5400 C   0  0  0  0  0  0  0  0  0  0  0  0
   15.5980   12.6270    2.3790 N   0  0  0  0  0  4  0  0  0  0  0  0
   17.8423   15.5784    6.4548 H   0  0  0  0  0  0  0  0  0  0  0  0
   18.9148   13.6595    6.0223 H   0  0  0  0  0  0  0  0  0  0  0  0
   19.5066   14.2661    4.4385 H   0  0  0  0  0  0  0  0  0  0  0  0
   20.3022   15.4210    7.1548 H   0  0  0  0  0  0  0  0  0  0  0  0
   21.2745   14.2286    6.2110 H   0  0  0  0  0  0  0  0  0  0  0  0
   21.7096   15.7441    4.4863 H   0  0  0  0  0  0  0  0  0  0  0  0
   19.9427   16.7372    3.6839 H   0  0  0  0  0  0  0  0  0  0  0  0
   18.0249   17.6828    4.9232 H   0  0  0  0  0  0  0  0  0  0  0  0
   18.9141   17.4000    6.4756 H   0  0  0  0  0  0  0  0  0  0  0  0
   19.9784   19.0896    3.8154 H   0  0  0  0  0  0  0  0  0  0  0  0
   20.3996   19.0676    5.5761 H   0  0  0  0  0  0  0  0  0  0  0  0
   22.2162   18.1481    3.3077 H   0  0  0  0  0  0  0  0  0  0  0  0
   22.3078   19.7367    4.1789 H   0  0  0  0  0  0  0  0  0  0  0  0
   23.7853   17.5774    4.8590 H   0  0  0  0  0  0  0  0  0  0  0  0
   23.1986   18.8466    6.0356 H   0  0  0  0  0  0  0  0  0  0  0  0
   21.6665   17.4637    7.0004 H   0  0  0  0  0  0  0  0  0  0  0  0
   22.9432   16.2604    6.5314 H   0  0  0  0  0  0  0  0  0  0  0  0
   17.1434   15.9263    3.6866 H   0  0  0  0  0  0  0  0  0  0  0  0
   17.0189   14.2611    4.4269 H   0  0  0  0  0  0  0  0  0  0  0  0
   15.5181   15.0461    6.1191 H   0  0  0  0  0  0  0  0  0  0  0  0
   15.7391   16.7601    5.5846 H   0  0  0  0  0  0  0  0  0  0  0  0
   13.9475   16.4857    4.2553 H   0  0  0  0  0  0  0  0  0  0  0  0
   14.9676   15.3538    3.2694 H   0  0  0  0  0  0  0  0  0  0  0  0
   14.0037   13.8979    5.5324 H   0  0  0  0  0  0  0  0  0  0  0  0
   12.6051   14.7892    4.7953 H   0  0  0  0  0  0  0  0  0  0  0  0
   12.5970   12.7783    3.6089 H   0  0  0  0  0  0  0  0  0  0  0  0
   13.5551   13.8821    2.5381 H   0  0  0  0  0  0  0  0  0  0  0  0
   15.2768   12.5325    4.4711 H   0  0  0  0  0  0  0  0  0  0  0  0
   14.3361   11.3476    3.4996 H   0  0  0  0  0  0  0  0  0  0  0  0
   16.5368   12.8874    2.7133 H   0  0  0  0  0  0  0  0  0  0  0  0
   15.6617   11.7719    1.8083 H   0  0  0  0  0  0  0  0  0  0  0  0
   15.2122   13.3927    1.8083 H   0  0  0  0  0  0  0  0  0  0  0  0
  2  1  1  0
  3  2  1  0
  4  3  1  0
  5  4  1  0
  6  1  1  0
  6  5  1  0
  7  5  1  0
  8  7  1  0
  9  8  1  0
 10  4  1  0
 10  9  1  0
 11  1  1  0
 12 11  1  0
 13 12  1  0
 14 13  1  0
 15 14  1  0
 16 15  1  0
 17 16  1  0
  1 18  1  1
  2 19  1  0
  2 20  1  0
  3 21  1  0
  3 22  1  0
  4 23  1  6
  5 24  1  6
  6 25  1  0
  6 26  1  0
  7 27  1  0
  7 28  1  0
  8 29  1  0
  8 30  1  0
  9 31  1  0
  9 32  1  0
 10 33  1  0
 10 34  1  0
 11 35  1  0
 11 36  1  0
 12 37  1  0
 12 38  1  0
 13 39  1  0
 13 40  1  0
 14 41  1  0
 14 42  1  0
 15 43  1  0
 15 44  1  0
 16 45  1  0
 16 46  1  0
 17 47  1  0
 17 48  1  0
 17 49  1  0
M  CHG  2   1   1  17   1
M  END
$$$$
=
     RDKit          3D

 35 35  0  0  0  0  0  0  0  0999 V2000
   19.8520   14.7270    3.5280 O   0  0  0  0  0  0  0  0  0  0  0  0
   19.0810   15.3540    4.2380 C   0  0  0  0  0  0  0  0  0  0  0  0
   17.7120   15.1050    4.2600 N   0  0  0  0  0  0  0  0  0  0  0  0
   16.8450   15.6740    5.2950 C   0  0  0  0  0  0  0  0  0  0  0  0
   15.3900   15.8050    4.8290 C   0  0  0  0  0  0  0  0  0  0  0  0
   14.9110   14.5030    4.2410 N   0  0  0  0  0  4  0  0  0  0  0  0
   15.7790   14.0380    3.0900 C   0  0  1  0  0  0  0  0  0  0  0  0
   17.2370   13.9040    3.5680 C   0  0  0  0  0  0  0  0  0  0  0  0
   15.2220   12.7190    2.5770 C   0  0  0  0  0  0  0  0  0  0  0  0
   19.4300   16.3530    5.0820 O   0  0  0  0  0  0  0  0  0  0  0  0
   19.9880   17.5980    4.5790 C   0  0  0  0  0  0  0  0  0  0  0  0
   19.4800   17.9050    3.1660 C   0  0  0  0  0  0  0  0  0  0  0  0
   21.5180   17.5900    4.6500 C   0  0  0  0  0  0  0  0  0  0  0  0
   19.4560   18.6760    5.5360 C   0  0  0  0  0  0  0  0  0  0  0  0
   16.8755   15.0213    6.1799 H   0  0  0  0  0  0  0  0  0  0  0  0
   17.2159   16.6833    5.5268 H   0  0  0  0  0  0  0  0  0  0  0  0
   14.7562   16.0704    5.6880 H   0  0  0  0  0  0  0  0  0  0  0  0
   15.3294   16.5892    4.0600 H   0  0  0  0  0  0  0  0  0  0  0  0
   14.9233   13.7827    4.9772 H   0  0  0  0  0  0  0  0  0  0  0  0
   13.9591   14.6529    3.8772 H   0  0  0  0  0  0  0  0  0  0  0  0
   15.7707   14.7661    2.2655 H   0  0  0  0  0  0  0  0  0  0  0  0
   17.3054   13.0493    4.2570 H   0  0  0  0  0  0  0  0  0  0  0  0
   17.8686   13.7578    2.6793 H   0  0  0  0  0  0  0  0  0  0  0  0
   14.9516   12.0788    3.4296 H   0  0  0  0  0  0  0  0  0  0  0  0
   14.3284   12.9115    1.9652 H   0  0  0  0  0  0  0  0  0  0  0  0
   15.9832   12.2127    1.9652 H   0  0  0  0  0  0  0  0  0  0  0  0
   18.5401   18.4730    3.2296 H   0  0  0  0  0  0  0  0  0  0  0  0
   20.2322   18.4999    2.6271 H   0  0  0  0  0  0  0  0  0  0  0  0
   19.3031   16.9625    2.6271 H   0  0  0  0  0  0  0  0  0  0  0  0
   21.8362   17.5883    5.7030 H   0  0  0  0  0  0  0  0  0  0  0  0
   21.9036   16.6898    4.1490 H   0  0  0  0  0  0  0  0  0  0  0  0
   21.9130   18.4861    4.1490 H   0  0  0  0  0  0  0  0  0  0  0  0
   19.6149   18.3540    6.5757 H   0  0  0  0  0  0  0  0  0  0  0  0
   19.9915   19.6203    5.3587 H   0  0  0  0  0  0  0  0  0  0  0  0
   18.3807   18.8254    5.3587 H   0  0  0  0  0  0  0  0  0  0  0  0
  2  1  2  0
  3  2  1  0
  4  3  1  0
  5  4  1  0
  6  5  1  0
  7  6  1  0
  8  7  1  0
  8  3  1  0
  9  7  1  0
 10  2  1  0
 11 10  1  0
 12 11  1  0
 13 11  1  0
 14 11  1  0
  4 15  1  0
  4 16  1  0
  5 17  1  0
  5 18  1  0
  6 19  1  0
  6 20  1  0
  7 21  1  6
  8 22  1  0
  8 23  1  0
  9 24  1  0
  9 25  1  0
  9 26  1  0
 12 27  1  0
 12 28  1  0
 12 29  1  0
 13 30  1  0
 13 31  1  0
 13 32  1  0
 14 33  1  0
 14 34  1  0
 14 35  1  0
M  CHG  1   6   1
M  END
$$$$
=
     RDKit          3D

 36 36  0  0  0  0  0  0  0  0999 V2000
   20.1320   14.9710    5.8830 C   0  0  0  0  0  0  0  0  0  0  0  0
   18.7010   15.1410    5.4680 C   0  0  0  0  0  0  0  0  0  0  0  0
   17.7910   15.7990    6.3070 C   0  0  0  0  0  0  0  0  0  0  0  0
   16.4710   16.0000    5.8990 C   0  0  0  0  0  0  0  0  0  0  0  0
   16.0380   15.5570    4.6440 C   0  0  0  0  0  0  0  0  0  0  0  0
   16.9460   14.8970    3.8070 C   0  0  0  0  0  0  0  0  0  0  0  0
   18.2670   14.6940    4.2120 C   0  0  0  0  0  0  0  0  0  0  0  0
   14.6050   15.7530    4.2140 C   0  0  0  0  0  0  0  0  0  0  0  0
   13.7860   14.4820    4.3810 C   0  0  0  0  0  0  0  0  0  0  0  0
   21.0300   15.7540    4.9840 N   0  0  0  0  0  4  0  0  0  0  0  0
   21.1160   17.2060    5.3050 C   0  0  0  0  0  0  0  0  0  0  0  0
   21.0320   18.0020    4.0090 C   0  0  0  0  0  0  0  0  0  0  0  0
   19.5590   17.4950    2.0280 C   0  0  0  0  0  0  0  0  0  0  0  0
   19.6060   18.0060    3.4600 C   0  0  0  0  0  0  0  0  0  0  0  0
   20.2544   15.3263    6.9168 H   0  0  0  0  0  0  0  0  0  0  0  0
   20.3994   13.9061    5.8157 H   0  0  0  0  0  0  0  0  0  0  0  0
   18.1190   16.1593    7.2932 H   0  0  0  0  0  0  0  0  0  0  0  0
   15.7650   16.5112    6.5700 H   0  0  0  0  0  0  0  0  0  0  0  0
   16.6160   14.5353    2.8220 H   0  0  0  0  0  0  0  0  0  0  0  0
   18.9714   14.1802    3.5414 H   0  0  0  0  0  0  0  0  0  0  0  0
   14.1555   16.5491    4.8256 H   0  0  0  0  0  0  0  0  0  0  0  0
   14.6020   16.0240    3.1479 H   0  0  0  0  0  0  0  0  0  0  0  0
   13.6503   14.2714    5.4521 H   0  0  0  0  0  0  0  0  0  0  0  0
   12.8028   14.6143    3.9058 H   0  0  0  0  0  0  0  0  0  0  0  0
   14.3127   13.6413    3.9058 H   0  0  0  0  0  0  0  0  0  0  0  0
   21.9770   15.3541    5.0483 H   0  0  0  0  0  0  0  0  0  0  0  0
   20.6267   15.6875    4.0386 H   0  0  0  0  0  0  0  0  0  0  0  0
   20.2837   17.4881    5.9666 H   0  0  0  0  0  0  0  0  0  0  0  0
   22.0675   17.4202    5.8137 H   0  0  0  0  0  0  0  0  0  0  0  0
   21.3458   19.0384    4.2025 H   0  0  0  0  0  0  0  0  0  0  0  0
   21.6923   17.5317    3.2655 H   0  0  0  0  0  0  0  0  0  0  0  0
   19.4583   16.3996    2.0327 H   0  0  0  0  0  0  0  0  0  0  0  0
   18.6980   17.9402    1.5079 H   0  0  0  0  0  0  0  0  0  0  0  0
   20.4868   17.7757    1.5079 H   0  0  0  0  0  0  0  0  0  0  0  0
   19.2159   19.0342    3.4857 H   0  0  0  0  0  0  0  0  0  0  0  0
   18.9935   17.3393    4.0848 H   0  0  0  0  0  0  0  0  0  0  0  0
  2  1  1  0
  3  2  2  0
  4  3  1  0
  5  4  2  0
  6  5  1  0
  7  6  2  0
  7  2  1  0
  8  5  1  0
  9  8  1  0
 10  1  1  0
 11 10  1  0
 12 11  1  0
 14 13  1  0
 14 12  1  0
  1 15  1  0
  1 16  1  0
  3 17  1  0
  4 18  1  0
  6 19  1  0
  7 20  1  0
  8 21  1  0
  8 22  1  0
  9 23  1  0
  9 24  1  0
  9 25  1  0
 10 26  1  0
 10 27  1  0
 11 28  1  0
 11 29  1  0
 12 30  1  0
 12 31  1  0
 13 32  1  0
 13 33  1  0
 13 34  1  0
 14 35  1  0
 14 36  1  0
M  CHG  1  10   1
M  END
$$$$
=
     RDKit          3D

 26 27  0  0  0  0  0  0  0  0999 V2000
   19.6860   14.5350    5.8880 O   0  0  0  0  0  0  0  0  0  0  0  0
   18.8420   14.9580    5.1400 C   0  0  0  0  0  0  0  0  0  0  0  0
   18.6240   14.9760    3.5980 C   0  0  1  0  0  0  0  0  0  0  0  0
   17.1860   15.4810    3.9740 C   0  0  2  0  0  0  0  0  0  0  0  0
   17.7200   15.6960    5.3330 N   0  0  0  0  0  0  0  0  0  0  0  0
   16.9940   15.8050    6.5700 C   0  0  0  0  0  0  0  0  0  0  0  0
   15.9950   14.4720    3.7250 C   0  0  0  0  0  0  0  0  0  0  0  0
   16.1400   13.1640    3.2220 C   0  0  0  0  0  0  0  0  0  0  0  0
   15.0360   12.3280    3.0120 C   0  0  0  0  0  0  0  0  0  0  0  0
   13.7490   12.7800    3.2900 C   0  0  0  0  0  0  0  0  0  0  0  0
   13.5640   14.0690    3.7700 C   0  0  0  0  0  0  0  0  0  0  0  0
   14.6730   14.8880    3.9730 C   0  0  0  0  0  0  0  0  0  0  0  0
   14.4750   16.1450    4.4020 F   0  0  0  0  0  0  0  0  0  0  0  0
   19.5270   15.9850    2.9740 N   0  0  0  0  0  4  0  0  0  0  0  0
   18.7695   14.1336    2.9057 H   0  0  0  0  0  0  0  0  0  0  0  0
   16.6621   16.2945    3.4508 H   0  0  0  0  0  0  0  0  0  0  0  0
   17.6909   15.7004    7.4146 H   0  0  0  0  0  0  0  0  0  0  0  0
   16.5013   16.7872    6.6207 H   0  0  0  0  0  0  0  0  0  0  0  0
   16.2346   15.0108    6.6207 H   0  0  0  0  0  0  0  0  0  0  0  0
   17.1473   12.7892    2.9879 H   0  0  0  0  0  0  0  0  0  0  0  0
   15.1867   11.3092    2.6255 H   0  0  0  0  0  0  0  0  0  0  0  0
   12.8840   12.1196    3.1302 H   0  0  0  0  0  0  0  0  0  0  0  0
   12.5519   14.4405    3.9881 H   0  0  0  0  0  0  0  0  0  0  0  0
   20.0060   16.5202    3.7123 H   0  0  0  0  0  0  0  0  0  0  0  0
   20.2261   15.5051    2.3893 H   0  0  0  0  0  0  0  0  0  0  0  0
   18.9727   16.6268    2.3893 H   0  0  0  0  0  0  0  0  0  0  0  0
  2  1  2  0
  3  2  1  0
  4  3  1  0
  5  4  1  0
  5  2  1  0
  6  5  1  0
  7  4  1  0
  8  7  2  0
  9  8  1  0
 10  9  2  0
 11 10  1  0
 12 11  2  0
 12  7  1  0
 13 12  1  0
 14  3  1  0
  3 15  1  6
  4 16  1  6
  6 17  1  0
  6 18  1  0
  6 19  1  0
  8 20  1  0
  9 21  1  0
 10 22  1  0
 11 23  1  0
 14 24  1  0
 14 25  1  0
 14 26  1  0
M  CHG  1  14   1
M  END
$$$$
=
     RDKit          3D

 35 36  0  0  0  0  0  0  0  0999 V2000
   20.0270   17.0910    5.3280 C   0  0  0  0  0  0  0  0  0  0  0  0
   21.2400   16.8770    5.9780 C   0  0  0  0  0  0  0  0  0  0  0  0
   21.5040   15.8040    6.7450 N   0  0  0  0  0  0  0  0  0  0  0  0
   20.5350   14.8770    6.8620 C   0  0  0  0  0  0  0  0  0  0  0  0
   19.3000   14.9800    6.2460 C   0  0  0  0  0  0  0  0  0  0  0  0
   19.0240   16.1090    5.4670 C   0  0  0  0  0  0  0  0  0  0  0  0
   17.7840   16.2860    4.7790 N   0  0  0  0  0  0  0  0  0  0  0  0
   16.6030   16.1150    5.6770 C   0  0  0  0  0  0  0  0  0  0  0  0
   15.3280   16.1870    4.8410 C   0  0  0  0  0  0  0  0  0  0  0  0
   15.2550   15.0350    3.8230 C   0  0  0  0  0  0  0  0  0  0  0  0
   16.6290   14.3840    3.5980 C   0  0  0  0  0  0  0  0  0  0  0  0
   17.7450   15.4240    3.5530 C   0  0  0  0  0  0  0  0  0  0  0  0
   14.2340   13.9790    4.2470 C   0  0  0  0  0  0  0  0  0  0  0  0
   19.8610   18.3020    4.4650 C   0  0  0  0  0  0  0  0  0  0  0  0
   20.2620   18.0620    3.0620 N   0  0  0  0  0  4  0  0  0  0  0  0
   22.0308   17.6319    5.8567 H   0  0  0  0  0  0  0  0  0  0  0  0
   20.7356   13.9898    7.4806 H   0  0  0  0  0  0  0  0  0  0  0  0
   18.5474   14.1869    6.3669 H   0  0  0  0  0  0  0  0  0  0  0  0
   16.6600   15.1380    6.1791 H   0  0  0  0  0  0  0  0  0  0  0  0
   16.5950   16.9112    6.4359 H   0  0  0  0  0  0  0  0  0  0  0  0
   14.4575   16.1277    5.5109 H   0  0  0  0  0  0  0  0  0  0  0  0
   15.3318   17.1373    4.2870 H   0  0  0  0  0  0  0  0  0  0  0  0
   14.9260   15.4749    2.8700 H   0  0  0  0  0  0  0  0  0  0  0  0
   16.8295   13.6811    4.4200 H   0  0  0  0  0  0  0  0  0  0  0  0
   16.6071   13.8620    2.6300 H   0  0  0  0  0  0  0  0  0  0  0  0
   18.7087   14.9019    3.4594 H   0  0  0  0  0  0  0  0  0  0  0  0
   17.5520   16.0806    2.6918 H   0  0  0  0  0  0  0  0  0  0  0  0
   14.1891   13.9325    5.3451 H   0  0  0  0  0  0  0  0  0  0  0  0
   13.2435   14.2466    3.8505 H   0  0  0  0  0  0  0  0  0  0  0  0
   14.5349   12.9981    3.8505 H   0  0  0  0  0  0  0  0  0  0  0  0
   18.8034   18.6040    4.4820 H   0  0  0  0  0  0  0  0  0  0  0  0
   20.5153   19.0893    4.8676 H   0  0  0  0  0  0  0  0  0  0  0  0
   21.1457   17.5331    3.0432 H   0  0  0  0  0  0  0  0  0  0  0  0
   19.5279   17.5212    2.5828 H   0  0  0  0  0  0  0  0  0  0  0  0
   20.3917   18.9645    2.5828 H   0  0  0  0  0  0  0  0  0  0  0  0
  2  1  2  0
  3  2  1  0
  4  3  2  0
  5  4  1  0
  6  5  2  0
  6  1  1  0
  7  6  1  0
  8  7  1  0
  9  8  1  0
 10  9  1  0
 11 10  1  0
 12 11  1  0
 12  7  1  0
 13 10  1  0
 14  1  1  0
 15 14  1  0
  2 16  1  0
  4 17  1  0
  5 18  1  0
  8 19  1  0
  8 20  1  0
  9 21  1  0
  9 22  1  0
 10 23  1  0
 11 24  1  0
 11 25  1  0
 12 26  1  0
 12 27  1  0
 13 28  1  0
 13 29  1  0
 13 30  1  0
 14 31  1  0
 14 32  1  0
 15 33  1  0
 15 34  1  0
 15 35  1  0
M  CHG  1  15   1
M  END
$$$$
=
     RDKit          3D

 44 46  0  0  0  0  0  0  0  0999 V2000
   16.9240   14.6240    3.9880 C   0  0  2  0  0  0  0  0  0  0  0  0
   17.5330   15.3970    5.1420 C   0  0  1  0  0  0  0  0  0  0  0  0
   17.5260   15.9850    3.7430 C   0  0  1  0  0  0  0  0  0  0  0  0
   12.6180   14.0140    3.8850 C   0  0  0  0  0  0  0  0  0  0  0  0
   13.1490   15.2450    4.2790 C   0  0  0  0  0  0  0  0  0  0  0  0
   14.5320   15.4460    4.3060 C   0  0  0  0  0  0  0  0  0  0  0  0
   15.4270   14.4250    3.9510 C   0  0  0  0  0  0  0  0  0  0  0  0
   14.8770   13.2040    3.5290 C   0  0  0  0  0  0  0  0  0  0  0  0
   13.4950   12.9960    3.4990 C   0  0  0  0  0  0  0  0  0  0  0  0
   10.7410   12.7660    2.7830 C   0  0  0  0  0  0  0  0  0  0  0  0
   11.1260   13.8050    3.8250 C   0  0  0  0  0  0  0  0  0  0  0  0
   19.2260   16.1850    3.1490 S   0  0  0  0  0  6  0  0  0  0  0  0
   19.7810   14.8490    3.1540 O   0  0  0  0  0  0  0  0  0  0  0  0
   19.0640   16.9150    1.9020 O   0  0  0  0  0  0  0  0  0  0  0  0
   20.1020   17.1710    4.3140 C   0  0  0  0  0  0  0  0  0  0  0  0
   21.4010   16.8000    4.6770 C   0  0  0  0  0  0  0  0  0  0  0  0
   22.0990   17.5730    5.6050 C   0  0  0  0  0  0  0  0  0  0  0  0
   21.5050   18.7100    6.1540 C   0  0  0  0  0  0  0  0  0  0  0  0
   20.2150   19.0850    5.7730 C   0  0  0  0  0  0  0  0  0  0  0  0
   19.5100   18.3190    4.8460 C   0  0  0  0  0  0  0  0  0  0  0  0
   16.8110   16.1550    6.1940 C   0  0  0  0  0  0  0  0  0  0  0  0
   16.5380   15.3040    7.3780 N   0  0  0  0  0  4  0  0  0  0  0  0
   17.0718   13.6294    3.5421 H   0  0  0  0  0  0  0  0  0  0  0  0
   18.2460   15.0866    5.9200 H   0  0  0  0  0  0  0  0  0  0  0  0
   17.1281   16.8482    3.1894 H   0  0  0  0  0  0  0  0  0  0  0  0
   12.4731   16.0625    4.5703 H   0  0  0  0  0  0  0  0  0  0  0  0
   14.9274   16.4257    4.6122 H   0  0  0  0  0  0  0  0  0  0  0  0
   15.5493   12.3921    3.2146 H   0  0  0  0  0  0  0  0  0  0  0  0
   13.0952   12.0256    3.1697 H   0  0  0  0  0  0  0  0  0  0  0  0
   10.4013   11.8493    3.2873 H   0  0  0  0  0  0  0  0  0  0  0  0
    9.9294   13.1607    2.1541 H   0  0  0  0  0  0  0  0  0  0  0  0
   11.6138   12.5366    2.1541 H   0  0  0  0  0  0  0  0  0  0  0  0
   10.6429   14.7600    3.5706 H   0  0  0  0  0  0  0  0  0  0  0  0
   10.7925   13.4419    4.8083 H   0  0  0  0  0  0  0  0  0  0  0  0
   21.8676   15.9073    4.2349 H   0  0  0  0  0  0  0  0  0  0  0  0
   23.1180   17.2861    5.9041 H   0  0  0  0  0  0  0  0  0  0  0  0
   22.0555   19.3138    6.8904 H   0  0  0  0  0  0  0  0  0  0  0  0
   19.7546   19.9859    6.2049 H   0  0  0  0  0  0  0  0  0  0  0  0
   18.4971   18.6157    4.5363 H   0  0  0  0  0  0  0  0  0  0  0  0
   17.4256   17.0133    6.5033 H   0  0  0  0  0  0  0  0  0  0  0  0
   15.8499   16.4945    5.7805 H   0  0  0  0  0  0  0  0  0  0  0  0
   16.7116   15.8451    8.2371 H   0  0  0  0  0  0  0  0  0  0  0  0
   15.5556   14.9949    7.3595 H   0  0  0  0  0  0  0  0  0  0  0  0
   17.1572   14.4811    7.3595 H   0  0  0  0  0  0  0  0  0  0  0  0
  2  1  1  0
  3  2  1  0
  3  1  1  0
  5  4  2  0
  6  5  1  0
  7  6  2  0
  7  1  1  0
  8  7  1  0
  9  8  2  0
  9  4  1  0
 11 10  1  0
 11  4  1  0
 12  3  1  0
 13 12  2  0
 14 12  2  0
 15 12  1  0
 16 15  2  0
 17 16  1  0
 18 17  2  0
 19 18  1  0
 20 15  1  0
 20 19  2  0
 21  2  1  0
 22 21  1  0
  1 23  1  6
  2 24  1  1
  3 25  1  1
  5 26  1  0
  6 27  1  0
  8 28  1  0
  9 29  1  0
 10 30  1  0
 10 31  1  0
 10 32  1  0
 11 33  1  0
 11 34  1  0
 16 35  1  0
 17 36  1  0
 18 37  1  0
 19 38  1  0
 20 39  1  0
 21 40  1  0
 21 41  1  0
 22 42  1  0
 22 43  1  0
 22 44  1  0
M  CHG  1  22   1
M  END
$$$$
=
     RDKit          3D

 37 37  0  0  0  0  0  0  0  0999 V2000
   17.5600   14.0250    3.6500 C   0  0  0  0  0  0  0  0  0  0  0  0
   17.2930   12.8020    3.0270 C   0  0  0  0  0  0  0  0  0  0  0  0
   15.9770   12.4100    2.7900 C   0  0  0  0  0  0  0  0  0  0  0  0
   14.8980   13.2150    3.1890 C   0  0  0  0  0  0  0  0  0  0  0  0
   15.1470   14.4410    3.8450 C   0  0  0  0  0  0  0  0  0  0  0  0
   16.4820   14.8570    4.0020 C   0  0  0  0  0  0  0  0  0  0  0  0
   13.9990   15.2780    4.3480 C   0  0  0  0  0  0  0  0  0  0  0  0
   13.4970   12.7210    2.9360 C   0  0  0  0  0  0  0  0  0  0  0  0
   16.7960   16.0590    4.5980 O   0  0  0  0  0  0  0  0  0  0  0  0
   16.7820   15.9270    6.0280 C   0  0  0  0  0  0  0  0  0  0  0  0
   18.9760   14.4310    3.9440 C   0  0  0  0  0  0  0  0  0  0  0  0
   19.3850   15.6860    3.2380 N   0  0  0  0  0  4  0  0  0  0  0  0
   20.2490   16.6450    3.9850 C   0  0  0  0  0  0  0  0  0  0  0  0
   19.4370   18.5420    5.4880 C   0  0  0  0  0  0  0  0  0  0  0  0
   19.6420   18.0410    4.0660 C   0  0  0  0  0  0  0  0  0  0  0  0
   18.1236   12.1479    2.7233 H   0  0  0  0  0  0  0  0  0  0  0  0
   15.7803   11.4543    2.2821 H   0  0  0  0  0  0  0  0  0  0  0  0
   13.9994   15.2777    5.4480 H   0  0  0  0  0  0  0  0  0  0  0  0
   14.1090   16.3093    3.9816 H   0  0  0  0  0  0  0  0  0  0  0  0
   13.0507   14.8579    3.9816 H   0  0  0  0  0  0  0  0  0  0  0  0
   12.9919   12.5429    3.8968 H   0  0  0  0  0  0  0  0  0  0  0  0
   12.9395   13.4768    2.3633 H   0  0  0  0  0  0  0  0  0  0  0  0
   13.5369   11.7827    2.3633 H   0  0  0  0  0  0  0  0  0  0  0  0
   16.8873   16.9202    6.4889 H   0  0  0  0  0  0  0  0  0  0  0  0
   15.8308   15.4746    6.3452 H   0  0  0  0  0  0  0  0  0  0  0  0
   17.6171   15.2851    6.3452 H   0  0  0  0  0  0  0  0  0  0  0  0
   19.0769   14.5901    5.0278 H   0  0  0  0  0  0  0  0  0  0  0  0
   19.6305   13.6236    3.5839 H   0  0  0  0  0  0  0  0  0  0  0  0
   19.8951   15.4092    2.3871 H   0  0  0  0  0  0  0  0  0  0  0  0
   18.5046   16.1958    3.0772 H   0  0  0  0  0  0  0  0  0  0  0  0
   20.3956   16.2648    5.0068 H   0  0  0  0  0  0  0  0  0  0  0  0
   21.2020   16.7273    3.4419 H   0  0  0  0  0  0  0  0  0  0  0  0
   19.7547   17.7657    6.1996 H   0  0  0  0  0  0  0  0  0  0  0  0
   20.0353   19.4514    5.6462 H   0  0  0  0  0  0  0  0  0  0  0  0
   18.3728   18.7711    5.6462 H   0  0  0  0  0  0  0  0  0  0  0  0
   20.3121   18.7409    3.5453 H   0  0  0  0  0  0  0  0  0  0  0  0
   18.6469   17.9842    3.6006 H   0  0  0  0  0  0  0  0  0  0  0  0
  2  1  2  0
  3  2  1  0
  4  3  2  0
  5  4  1  0
  6  5  2  0
  6  1  1  0
  7  5  1  0
  8  4  1  0
  9  6  1  0
 10  9  1  0
 11  1  1  0
 12 11  1  0
 13 12  1  0
 15 13  1  0
 15 14  1  0
  2 16  1  0
  3 17  1  0
  7 18  1  0
  7 19  1  0
  7 20  1  0
  8 21  1  0
  8 22  1  0
  8 23  1  0
 10 24  1  0
 10 25  1  0
 10 26  1  0
 11 27  1  0
 11 28  1  0
 12 29  1  0
 12 30  1  0
 13 31  1  0
 13 32  1  0
 14 33  1  0
 14 34  1  0
 14 35  1  0
 15 36  1  0
 15 37  1  0
M  CHG  1  12   1
M  END
$$$$
=
     RDKit          3D

 47 49  0  0  0  0  0  0  0  0999 V2000
   15.0210   14.5350    4.0760 C   0  0  0  0  0  0  0  0  0  0  0  0
   14.5990   15.8100    4.4090 C   0  0  0  0  0  0  0  0  0  0  0  0
   15.7380   16.5130    4.8730 C   0  0  0  0  0  0  0  0  0  0  0  0
   16.8030   15.6380    4.7960 C   0  0  0  0  0  0  0  0  0  0  0  0
   16.3690   14.4440    4.2960 O   0  0  0  0  0  0  0  0  0  0  0  0
   10.0220   14.3010    5.7940 C   0  0  0  0  0  0  0  0  0  0  0  0
   10.8530   13.4470    4.8390 C   0  0  1  0  0  0  0  0  0  0  0  0
   10.0030   12.9650    3.6500 C   0  0  0  0  0  0  0  0  0  0  0  0
   10.8410   12.6500    2.4000 C   0  0  2  0  0  0  0  0  0  0  0  0
   10.1880   11.5550    1.5620 C   0  0  0  0  0  0  0  0  0  0  0  0
   12.2810   12.2870    2.7680 C   0  0  0  0  0  0  0  0  0  0  0  0
   12.9400   13.3730    3.4920 N   0  0  0  0  0  0  0  0  0  0  0  0
   12.1050   14.1970    4.3690 C   0  0  0  0  0  0  0  0  0  0  0  0
   14.3450   13.3750    3.5210 C   0  0  0  0  0  0  0  0  0  0  0  0
   14.9740   12.4190    3.0620 O   0  0  0  0  0  0  0  0  0  0  0  0
   18.2320   15.7160    5.0960 C   0  0  0  0  0  0  0  0  0  0  0  0
   18.6880   15.2000    6.3220 C   0  0  0  0  0  0  0  0  0  0  0  0
   20.0450   15.2100    6.6580 C   0  0  0  0  0  0  0  0  0  0  0  0
   20.9910   15.6950    5.7600 C   0  0  0  0  0  0  0  0  0  0  0  0
   20.5420   16.2750    4.5720 C   0  0  0  0  0  0  0  0  0  0  0  0
   19.1750   16.2910    4.2190 C   0  0  0  0  0  0  0  0  0  0  0  0
   18.7910   16.9320    2.9140 C   0  0  0  0  0  0  0  0  0  0  0  0
   22.3330   15.8050    6.1380 N   0  0  0  0  0  0  0  0  0  0  0  0
   13.5746   16.2027    4.3288 H   0  0  0  0  0  0  0  0  0  0  0  0
   15.7680   17.5543    5.2262 H   0  0  0  0  0  0  0  0  0  0  0  0
   10.2748   14.0412    6.8326 H   0  0  0  0  0  0  0  0  0  0  0  0
   10.2400   15.3648    5.6187 H   0  0  0  0  0  0  0  0  0  0  0  0
    8.9526   14.1121    5.6187 H   0  0  0  0  0  0  0  0  0  0  0  0
   11.1921   12.5565    5.3886 H   0  0  0  0  0  0  0  0  0  0  0  0
    9.4654   12.0535    3.9503 H   0  0  0  0  0  0  0  0  0  0  0  0
    9.3137   13.7808    3.3866 H   0  0  0  0  0  0  0  0  0  0  0  0
   10.8797   13.5623    1.7867 H   0  0  0  0  0  0  0  0  0  0  0  0
    9.7393   10.8026    2.2272 H   0  0  0  0  0  0  0  0  0  0  0  0
    9.4056   11.9965    0.9273 H   0  0  0  0  0  0  0  0  0  0  0  0
   10.9483   11.0764    0.9273 H   0  0  0  0  0  0  0  0  0  0  0  0
   12.2719   11.3885    3.4025 H   0  0  0  0  0  0  0  0  0  0  0  0
   12.8390   12.1044    1.8378 H   0  0  0  0  0  0  0  0  0  0  0  0
   11.7943   15.0981    3.8200 H   0  0  0  0  0  0  0  0  0  0  0  0
   12.6988   14.4580    5.2574 H   0  0  0  0  0  0  0  0  0  0  0  0
   17.9610   14.7792    7.0323 H   0  0  0  0  0  0  0  0  0  0  0  0
   20.3673   14.8317    7.6393 H   0  0  0  0  0  0  0  0  0  0  0  0
   21.2747   16.7329    3.8911 H   0  0  0  0  0  0  0  0  0  0  0  0
   18.2349   17.8604    3.1111 H   0  0  0  0  0  0  0  0  0  0  0  0
   19.6991   17.1638    2.3381 H   0  0  0  0  0  0  0  0  0  0  0  0
   18.1582   16.2407    2.3381 H   0  0  0  0  0  0  0  0  0  0  0  0
   23.0287   16.1647    5.4690 H   0  0  0  0  0  0  0  0  0  0  0  0
   22.6257   15.5263    7.0854 H   0  0  0  0  0  0  0  0  0  0  0  0
  2  1  2  0
  3  2  1  0
  4  3  2  0
  5  1  1  0
  5  4  1  0
  7  6  1  0
  8  7  1  0
  9  8  1  0
 10  9  1  0
 11  9  1  0
 12 11  1  0
 13  7  1  0
 13 12  1  0
 14 12  1  0
 14  1  1  0
 15 14  2  0
 16  4  1  0
 17 16  2  0
 18 17  1  0
 19 18  2  0
 20 19  1  0
 21 20  2  0
 21 16  1  0
 22 21  1  0
 23 19  1  0
  2 24  1  0
  3 25  1  0
  6 26  1  0
  6 27  1  0
  6 28  1  0
  7 29  1  1
  8 30  1  0
  8 31  1  0
  9 32  1  6
 10 33  1  0
 10 34  1  0
 10 35  1  0
 11 36  1  0
 11 37  1  0
 13 38  1  0
 13 39  1  0
 17 40  1  0
 18 41  1  0
 20 42  1  0
 22 43  1  0
 22 44  1  0
 22 45  1  0
 23 46  1  0
 23 47  1  0
M  END
$$$$
=
     RDKit          3D

 29 30  0  0  0  0  0  0  0  0999 V2000
   15.5550   14.7560    4.2980 C   0  0  0  0  0  0  0  0  0  0  0  0
   15.4510   16.0850    5.0330 C   0  0  0  0  0  0  0  0  0  0  0  0
   16.7580   16.4780    5.7310 C   0  0  0  0  0  0  0  0  0  0  0  0
   17.9380   16.5330    4.7520 C   0  0  2  0  0  0  0  0  0  0  0  0
   18.0140   15.1980    3.9430 C   0  0  0  0  0  0  0  0  0  0  0  0
   16.6950   14.8360    3.3280 N   0  0  0  0  0  4  0  0  0  0  0  0
   19.2340   16.7840    5.4850 N   0  0  0  0  0  4  0  0  0  0  0  0
   20.2020   15.6140    5.3180 C   0  0  0  0  0  0  0  0  0  0  0  0
   21.6830   16.0060    5.5840 C   0  0  0  0  0  0  0  0  0  0  0  0
   21.4370   15.8140    7.0120 O   0  0  0  0  0  0  0  0  0  0  0  0
   20.3940   14.8520    6.6600 C   0  0  0  0  0  0  0  0  0  0  0  0
   15.7382   13.9463    5.0197 H   0  0  0  0  0  0  0  0  0  0  0  0
   14.6176   14.5482    3.7612 H   0  0  0  0  0  0  0  0  0  0  0  0
   15.1899   16.8692    4.3072 H   0  0  0  0  0  0  0  0  0  0  0  0
   14.6791   15.9763    5.8091 H   0  0  0  0  0  0  0  0  0  0  0  0
   16.6311   17.4694    6.1904 H   0  0  0  0  0  0  0  0  0  0  0  0
   16.9813   15.7136    6.4898 H   0  0  0  0  0  0  0  0  0  0  0  0
   17.7791   17.3676    4.0533 H   0  0  0  0  0  0  0  0  0  0  0  0
   18.7599   15.3103    3.1424 H   0  0  0  0  0  0  0  0  0  0  0  0
   18.2950   14.3947    4.6400 H   0  0  0  0  0  0  0  0  0  0  0  0
   16.7942   13.9176    2.8725 H   0  0  0  0  0  0  0  0  0  0  0  0
   16.4637   15.5918    2.6675 H   0  0  0  0  0  0  0  0  0  0  0  0
   19.6716   17.6377    5.1100 H   0  0  0  0  0  0  0  0  0  0  0  0
   19.0246   16.8920    6.4877 H   0  0  0  0  0  0  0  0  0  0  0  0
   19.8375   15.1789    4.3758 H   0  0  0  0  0  0  0  0  0  0  0  0
   22.4213   15.3141    5.1525 H   0  0  0  0  0  0  0  0  0  0  0  0
   22.1012   16.9478    5.1993 H   0  0  0  0  0  0  0  0  0  0  0  0
   19.5163   14.8696    7.3228 H   0  0  0  0  0  0  0  0  0  0  0  0
   20.5874   13.7693    6.6782 H   0  0  0  0  0  0  0  0  0  0  0  0
  2  1  1  0
  3  2  1  0
  4  3  1  0
  5  4  1  0
  6  1  1  0
  6  5  1  0
  7  4  1  0
  8  7  1  0
  9  8  1  0
 10  9  1  0
 11  8  1  0
 11 10  1  0
  1 12  1  0
  1 13  1  0
  2 14  1  0
  2 15  1  0
  3 16  1  0
  3 17  1  0
  4 18  1  6
  5 19  1  0
  5 20  1  0
  6 21  1  0
  6 22  1  0
  7 23  1  0
  7 24  1  0
  8 25  1  0
  9 26  1  0
  9 27  1  0
 11 28  1  0
 11 29  1  0
M  CHG  2   6   1   7   1
M  END
$$$$
=
     RDKit          3D

 48 51  0  0  0  0  0  0  0  0999 V2000
   13.4710   12.7360    3.4090 C   0  0  0  0  0  0  0  0  0  0  0  0
   12.0880   13.1590    3.8640 C   0  0  0  0  0  0  0  0  0  0  0  0
   11.8180   13.5000    5.1990 C   0  0  0  0  0  0  0  0  0  0  0  0
   10.5220   13.8420    5.5990 C   0  0  0  0  0  0  0  0  0  0  0  0
    9.4550   13.8480    4.6870 C   0  0  0  0  0  0  0  0  0  0  0  0
    9.7300   13.5020    3.3570 C   0  0  0  0  0  0  0  0  0  0  0  0
   11.0240   13.1610    2.9480 C   0  0  0  0  0  0  0  0  0  0  0  0
    8.0940   14.2120    5.1130 C   0  0  0  0  0  0  0  0  0  0  0  0
    7.8260   14.5730    6.4450 C   0  0  0  0  0  0  0  0  0  0  0  0
    6.5340   14.9200    6.8510 C   0  0  0  0  0  0  0  0  0  0  0  0
    5.4880   14.9110    5.9330 C   0  0  0  0  0  0  0  0  0  0  0  0
    5.7320   14.5570    4.6090 C   0  0  0  0  0  0  0  0  0  0  0  0
    7.0250   14.2110    4.2030 C   0  0  0  0  0  0  0  0  0  0  0  0
   14.5750   13.7340    3.7120 C   0  0  0  0  0  0  0  0  0  0  0  0
   15.8700   13.4810    3.2260 C   0  0  0  0  0  0  0  0  0  0  0  0
   16.9200   14.3710    3.4770 C   0  0  0  0  0  0  0  0  0  0  0  0
   16.7150   15.5450    4.2110 C   0  0  0  0  0  0  0  0  0  0  0  0
   15.4190   15.8050    4.6830 C   0  0  0  0  0  0  0  0  0  0  0  0
   14.3640   14.9180    4.4380 C   0  0  0  0  0  0  0  0  0  0  0  0
   17.8200   16.4810    4.4730 C   0  0  0  0  0  0  0  0  0  0  0  0
   18.9290   16.5520    3.6130 C   0  0  0  0  0  0  0  0  0  0  0  0
   19.9780   17.4410    3.8620 C   0  0  0  0  0  0  0  0  0  0  0  0
   19.9360   18.2740    4.9770 C   0  0  0  0  0  0  0  0  0  0  0  0
   18.8470   18.2190    5.8420 C   0  0  0  0  0  0  0  0  0  0  0  0
   17.7990   17.3290    5.5930 C   0  0  0  0  0  0  0  0  0  0  0  0
   13.7640   11.3690    3.9120 N   0  0  0  0  0  4  0  0  0  0  0  0
   13.4554   12.7149    2.3093 H   0  0  0  0  0  0  0  0  0  0  0  0
   12.6334   13.4982    5.9373 H   0  0  0  0  0  0  0  0  0  0  0  0
   10.3353   14.1116    6.6490 H   0  0  0  0  0  0  0  0  0  0  0  0
    8.9129   13.4984    2.6205 H   0  0  0  0  0  0  0  0  0  0  0  0
   11.2096   12.8917    1.8977 H   0  0  0  0  0  0  0  0  0  0  0  0
    8.6453   14.5826    7.1789 H   0  0  0  0  0  0  0  0  0  0  0  0
    6.3439   15.2005    7.8975 H   0  0  0  0  0  0  0  0  0  0  0  0
    4.4712   15.1829    6.2528 H   0  0  0  0  0  0  0  0  0  0  0  0
    4.9071   14.5494    3.8813 H   0  0  0  0  0  0  0  0  0  0  0  0
    7.2071   13.9338    3.1542 H   0  0  0  0  0  0  0  0  0  0  0  0
   16.0604   12.5699    2.6398 H   0  0  0  0  0  0  0  0  0  0  0  0
   17.9246   14.1440    3.0906 H   0  0  0  0  0  0  0  0  0  0  0  0
   15.2285   16.7239    5.2568 H   0  0  0  0  0  0  0  0  0  0  0  0
   13.3584   15.1508    4.8183 H   0  0  0  0  0  0  0  0  0  0  0  0
   18.9721   15.8975    2.7299 H   0  0  0  0  0  0  0  0  0  0  0  0
   20.8375   17.4828    3.1767 H   0  0  0  0  0  0  0  0  0  0  0  0
   20.7615   18.9739    5.1737 H   0  0  0  0  0  0  0  0  0  0  0  0
   18.8113   18.8770    6.7228 H   0  0  0  0  0  0  0  0  0  0  0  0
   16.9444   17.2917    6.2845 H   0  0  0  0  0  0  0  0  0  0  0  0
   13.7628   11.3746    4.9420 H   0  0  0  0  0  0  0  0  0  0  0  0
   13.0438   10.7161    3.5714 H   0  0  0  0  0  0  0  0  0  0  0  0
   14.6885   11.0686    3.5714 H   0  0  0  0  0  0  0  0  0  0  0  0
  2  1  1  0
  3  2  2  0
  4  3  1  0
  5  4  2  0
  6  5  1  0
  7  6  2  0
  7  2  1  0
  8  5  1  0
  9  8  2  0
 10  9  1  0
 11 10  2  0
 12 11  1  0
 13 12  2  0
 13  8  1  0
 14  1  1  0
 15 14  2  0
 16 15  1  0
 17 16  2  0
 18 17  1  0
 19 18  2  0
 19 14  1  0
 20 17  1  0
 21 20  2  0
 22 21  1  0
 23 22  2  0
 24 23  1  0
 25 20  1  0
 25 24  2  0
 26  1  1  0
  1 27  1  0
  3 28  1  0
  4 29  1  0
  6 30  1  0
  7 31  1  0
  9 32  1  0
 10 33  1  0
 11 34  1  0
 12 35  1  0
 13 36  1  0
 15 37  1  0
 16 38  1  0
 18 39  1  0
 19 40  1  0
 21 41  1  0
 22 42  1  0
 23 43  1  0
 24 44  1  0
 25 45  1  0
 26 46  1  0
 26 47  1  0
 26 48  1  0
M  CHG  1  26   1
M  END
$$$$
=
     RDKit          3D

 32 32  0  0  0  0  0  0  0  0999 V2000
   21.2170   15.2890    7.2630 O   0  0  0  0  0  1  0  0  0  0  0  0
   21.4420   16.1530    6.4010 N   0  0  0  0  0  4  0  0  0  0  0  0
   22.3200   17.0230    6.4570 O   0  0  0  0  0  0  0  0  0  0  0  0
   20.5820   16.1010    5.2310 C   0  0  0  0  0  0  0  0  0  0  0  0
   19.5000   15.2280    4.9740 C   0  0  0  0  0  0  0  0  0  0  0  0
   19.0400   15.5770    3.7140 C   0  0  0  0  0  0  0  0  0  0  0  0
   19.8190   16.6460    3.3280 N   0  0  0  0  0  0  0  0  0  0  0  0
   20.7910   16.9400    4.2070 N   0  0  0  0  0  0  0  0  0  0  0  0
   19.7220   17.4380    2.1190 C   0  0  0  0  0  0  0  0  0  0  0  0
   17.9390   15.0170    2.8970 C   0  0  0  0  0  0  0  0  0  0  0  0
   16.9600   14.2450    3.7190 N   0  0  0  0  0  4  0  0  0  0  0  0
   15.5140   14.6250    3.6210 C   0  0  0  0  0  0  0  0  0  0  0  0
   14.9760   15.0490    4.9830 C   0  0  0  0  0  0  0  0  0  0  0  0
   15.9230   15.9930    5.7280 C   0  0  0  0  0  0  0  0  0  0  0  0
   16.4430   15.4220    7.0390 C   0  0  0  0  0  0  0  0  0  0  0  0
   19.1071   14.4400    5.6333 H   0  0  0  0  0  0  0  0  0  0  0  0
   19.5922   18.4976    2.3842 H   0  0  0  0  0  0  0  0  0  0  0  0
   20.6415   17.3181    1.5273 H   0  0  0  0  0  0  0  0  0  0  0  0
   18.8586   17.0997    1.5273 H   0  0  0  0  0  0  0  0  0  0  0  0
   17.4101   15.8444    2.4013 H   0  0  0  0  0  0  0  0  0  0  0  0
   18.3813   14.3266    2.1637 H   0  0  0  0  0  0  0  0  0  0  0  0
   17.0375   13.2562    3.4411 H   0  0  0  0  0  0  0  0  0  0  0  0
   17.2179   14.4535    4.6941 H   0  0  0  0  0  0  0  0  0  0  0  0
   15.4072   15.4610    2.9141 H   0  0  0  0  0  0  0  0  0  0  0  0
   14.9418   13.7536    3.2698 H   0  0  0  0  0  0  0  0  0  0  0  0
   14.0133   15.5606    4.8367 H   0  0  0  0  0  0  0  0  0  0  0  0
   14.8670   14.1403    5.5932 H   0  0  0  0  0  0  0  0  0  0  0  0
   16.7830   16.2085    5.0768 H   0  0  0  0  0  0  0  0  0  0  0  0
   15.3489   16.8982    5.9748 H   0  0  0  0  0  0  0  0  0  0  0  0
   15.9667   15.9451    7.8813 H   0  0  0  0  0  0  0  0  0  0  0  0
   16.2051   14.3493    7.0917 H   0  0  0  0  0  0  0  0  0  0  0  0
   17.5332   15.5588    7.0917 H   0  0  0  0  0  0  0  0  0  0  0  0
  2  1  1  0
  3  2  2  0
  4  2  1  0
  5  4  1  0
  6  5  2  0
  7  6  1  0
  8  4  2  0
  8  7  1  0
  9  7  1  0
 10  6  1  0
 11 10  1  0
 12 11  1  0
 13 12  1  0
 14 13  1  0
 15 14  1  0
  5 16  1  0
  9 17  1  0
  9 18  1  0
  9 19  1  0
 10 20  1  0
 10 21  1  0
 11 22  1  0
 11 23  1  0
 12 24  1  0
 12 25  1  0
 13 26  1  0
 13 27  1  0
 14 28  1  0
 14 29  1  0
 15 30  1  0
 15 31  1  0
 15 32  1  0
M  CHG  3   1  -1   2   1  11   1
M  END
$$$$
=
     RDKit          3D

 20 20  0  0  0  0  0  0  0  0999 V2000
   19.2390   17.2300    4.3170 C   0  0  0  0  0  0  0  0  0  0  0  0
   18.7800   15.8880    3.8000 C   0  0  0  0  0  0  0  0  0  0  0  0
   19.5870   15.1110    3.3050 O   0  0  0  0  0  0  0  0  0  0  0  0
   17.4320   15.6970    3.9840 N   0  0  0  0  0  0  0  0  0  0  0  0
   16.7010   14.5440    3.6600 C   0  0  0  0  0  0  0  0  0  0  0  0
   17.2980   13.4620    3.1300 N   0  0  0  0  0  0  0  0  0  0  0  0
   16.5190   12.3990    2.8450 C   0  0  0  0  0  0  0  0  0  0  0  0
   15.1500   12.3700    3.0520 C   0  0  0  0  0  0  0  0  0  0  0  0
   14.5400   13.4980    3.5920 C   0  0  0  0  0  0  0  0  0  0  0  0
   15.3200   14.5990    3.9430 C   0  0  0  0  0  0  0  0  0  0  0  0
   14.6990   15.8150    4.3420 N   0  0  0  0  0  0  0  0  0  0  0  0
   19.2355   17.2199    5.4169 H   0  0  0  0  0  0  0  0  0  0  0  0
   20.2578   17.4333    3.9554 H   0  0  0  0  0  0  0  0  0  0  0  0
   18.5581   18.0146    3.9554 H   0  0  0  0  0  0  0  0  0  0  0  0
   16.9056   16.4778    4.4013 H   0  0  0  0  0  0  0  0  0  0  0  0
   16.9986   11.5031    2.4238 H   0  0  0  0  0  0  0  0  0  0  0  0
   14.5598   11.4778    2.7960 H   0  0  0  0  0  0  0  0  0  0  0  0
   13.4504   13.5209    3.7409 H   0  0  0  0  0  0  0  0  0  0  0  0
   15.2767   16.6275    4.6010 H   0  0  0  0  0  0  0  0  0  0  0  0
   13.6717   15.8830    4.3719 H   0  0  0  0  0  0  0  0  0  0  0  0
  2  1  1  0
  3  2  2  0
  4  2  1  0
  5  4  1  0
  6  5  2  0
  7  6  1  0
  8  7  2  0
  9  8  1  0
 10  9  2  0
 10  5  1  0
 11 10  1  0
  1 12  1  0
  1 13  1  0
  1 14  1  0
  4 15  1  0
  7 16  1  0
  8 17  1  0
  9 18  1  0
 11 19  1  0
 11 20  1  0
M  END
$$$$
=
     RDKit          3D

 25 26  0  0  0  0  0  0  0  0999 V2000
   12.4030   14.1600    3.9490 C   0  0  0  0  0  0  0  0  0  0  0  0
   12.5580   12.9430    3.2790 C   0  0  0  0  0  0  0  0  0  0  0  0
   13.8360   12.4840    2.9400 C   0  0  0  0  0  0  0  0  0  0  0  0
   14.9600   13.2390    3.2710 C   0  0  0  0  0  0  0  0  0  0  0  0
   14.8080   14.4460    3.9360 C   0  0  0  0  0  0  0  0  0  0  0  0
   13.5340   14.9100    4.2770 C   0  0  0  0  0  0  0  0  0  0  0  0
   16.0100   15.2180    4.2670 C   0  0  0  0  0  0  0  0  0  0  0  0
   15.9380   16.2950    4.8460 O   0  0  0  0  0  0  0  0  0  0  0  0
   17.3070   14.6370    3.8670 C   0  0  0  0  0  0  0  0  0  0  0  0
   17.3330   13.4410    3.2420 C   0  0  0  0  0  0  0  0  0  0  0  0
   16.1810   12.7370    2.9130 O   0  0  0  0  0  0  0  0  0  0  0  0
   18.4780   12.7760    2.8570 N   0  0  0  0  0  0  0  0  0  0  0  0
   10.5010   14.0650    5.3760 C   0  0  0  0  0  0  0  0  0  0  0  0
   11.2160   14.7170    4.3350 O   0  0  0  0  0  0  0  0  0  0  0  0
   18.5560   15.3840    4.1660 C   0  0  0  0  0  0  0  0  0  0  0  0
   19.5810   15.2940    3.4960 O   0  0  0  0  0  0  0  0  0  0  0  0
   11.6730   12.3444    3.0174 H   0  0  0  0  0  0  0  0  0  0  0  0
   13.9536   11.5263    2.4117 H   0  0  0  0  0  0  0  0  0  0  0  0
   13.4224   15.8685    4.8051 H   0  0  0  0  0  0  0  0  0  0  0  0
   18.4093   11.8640    2.3833 H   0  0  0  0  0  0  0  0  0  0  0  0
   19.4020   13.1913    3.0431 H   0  0  0  0  0  0  0  0  0  0  0  0
   10.8778   14.4086    6.3506 H   0  0  0  0  0  0  0  0  0  0  0  0
    9.4307   14.3045    5.2915 H   0  0  0  0  0  0  0  0  0  0  0  0
   10.6411   12.9772    5.2915 H   0  0  0  0  0  0  0  0  0  0  0  0
   18.5628   16.0558    5.0370 H   0  0  0  0  0  0  0  0  0  0  0  0
  2  1  2  0
  3  2  1  0
  4  3  2  0
  5  4  1  0
  6  5  2  0
  6  1  1  0
  7  5  1  0
  8  7  2  0
  9  7  1  0
 10  9  2  0
 11  4  1  0
 11 10  1  0
 12 10  1  0
 14 13  1  0
 14  1  1  0
 15  9  1  0
 16 15  2  0
  2 17  1  0
  3 18  1  0
  6 19  1  0
 12 20  1  0
 12 21  1  0
 13 22  1  0
 13 23  1  0
 13 24  1  0
 15 25  1  0
M  END
$$$$
=
     RDKit          3D

 40 40  0  0  0  0  0  0  0  0999 V2000
   19.9390   18.0560    3.5200 C   0  0  1  0  0  0  0  0  0  0  0  0
   19.6290   17.4410    2.1590 C   0  0  0  0  0  0  0  0  0  0  0  0
   19.2100   16.0330    2.4980 N   0  0  0  0  0  4  0  0  0  0  0  0
   18.7580   16.0110    3.9380 C   0  0  1  0  0  0  0  0  0  0  0  0
   18.8150   17.4810    4.3680 C   0  0  0  0  0  0  0  0  0  0  0  0
   21.1970   17.5360    3.9610 O   0  0  0  0  0  0  0  0  0  0  0  0
   21.6640   18.1060    5.1880 C   0  0  0  0  0  0  0  0  0  0  0  0
   22.1740   17.0340    6.1520 C   0  0  0  0  0  0  0  0  0  0  0  0
   20.6870   15.0840    6.7320 C   0  0  0  0  0  0  0  0  0  0  0  0
   21.7130   15.6300    5.7520 C   0  0  0  0  0  0  0  0  0  0  0  0
   17.3580   15.4080    4.0720 C   0  0  0  0  0  0  0  0  0  0  0  0
   16.4200   16.1440    5.0510 C   0  0  0  0  0  0  0  0  0  0  0  0
   16.5980   15.7260    6.5090 C   0  0  0  0  0  0  0  0  0  0  0  0
   14.9630   15.9170    4.6320 C   0  0  0  0  0  0  0  0  0  0  0  0
   19.9995   19.1540    3.5454 H   0  0  0  0  0  0  0  0  0  0  0  0
   18.8141   17.9842    1.6582 H   0  0  0  0  0  0  0  0  0  0  0  0
   20.4826   17.4796    1.4663 H   0  0  0  0  0  0  0  0  0  0  0  0
   18.4353   15.7422    1.8846 H   0  0  0  0  0  0  0  0  0  0  0  0
   19.9982   15.3840    2.3619 H   0  0  0  0  0  0  0  0  0  0  0  0
   19.3898   15.3777    4.5781 H   0  0  0  0  0  0  0  0  0  0  0  0
   17.8630   17.9898    4.1562 H   0  0  0  0  0  0  0  0  0  0  0  0
   18.9863   17.6052    5.4475 H   0  0  0  0  0  0  0  0  0  0  0  0
   22.4836   18.8055    4.9669 H   0  0  0  0  0  0  0  0  0  0  0  0
   20.8210   18.6251    5.6675 H   0  0  0  0  0  0  0  0  0  0  0  0
   23.2737   17.0574    6.1582 H   0  0  0  0  0  0  0  0  0  0  0  0
   21.7633   17.2531    7.1486 H   0  0  0  0  0  0  0  0  0  0  0  0
   21.0297   15.2664    7.7612 H   0  0  0  0  0  0  0  0  0  0  0  0
   19.7225   15.5881    6.5719 H   0  0  0  0  0  0  0  0  0  0  0  0
   20.5664   14.0024    6.5719 H   0  0  0  0  0  0  0  0  0  0  0  0
   22.5841   14.9585    5.7344 H   0  0  0  0  0  0  0  0  0  0  0  0
   21.2459   15.6886    4.7578 H   0  0  0  0  0  0  0  0  0  0  0  0
   16.8870   15.4155    3.0779 H   0  0  0  0  0  0  0  0  0  0  0  0
   17.4976   14.3971    4.4826 H   0  0  0  0  0  0  0  0  0  0  0  0
   16.6877   17.2095    4.9955 H   0  0  0  0  0  0  0  0  0  0  0  0
   16.2528   16.5366    7.1676 H   0  0  0  0  0  0  0  0  0  0  0  0
   16.0084   14.8183    6.7048 H   0  0  0  0  0  0  0  0  0  0  0  0
   17.6610   15.5220    6.7048 H   0  0  0  0  0  0  0  0  0  0  0  0
   14.3344   15.8191    5.5294 H   0  0  0  0  0  0  0  0  0  0  0  0
   14.6163   16.7720    4.0330 H   0  0  0  0  0  0  0  0  0  0  0  0
   14.8928   14.9971    4.0330 H   0  0  0  0  0  0  0  0  0  0  0  0
  2  1  1  0
  3  2  1  0
  4  3  1  0
  5  4  1  0
  5  1  1  0
  6  1  1  0
  7  6  1  0
  8  7  1  0
 10  9  1  0
 10  8  1  0
 11  4  1  0
 12 11  1  0
 13 12  1  0
 14 12  1  0
  1 15  1  6
  2 16  1  0
  2 17  1  0
  3 18  1  0
  3 19  1  0
  4 20  1  1
  5 21  1  0
  5 22  1  0
  7 23  1  0
  7 24  1  0
  8 25  1  0
  8 26  1  0
  9 27  1  0
  9 28  1  0
  9 29  1  0
 10 30  1  0
 10 31  1  0
 11 32  1  0
 11 33  1  0
 12 34  1  0
 13 35  1  0
 13 36  1  0
 13 37  1  0
 14 38  1  0
 14 39  1  0
 14 40  1  0
M  CHG  1   3   1
M  END
$$$$
=
     RDKit          3D

 24 25  0  0  0  0  0  0  0  0999 V2000
   14.3270   15.5050    4.2080 N   0  0  0  0  0  0  0  0  0  0  0  0
   15.1450   14.4830    3.7590 C   0  0  0  0  0  0  0  0  0  0  0  0
   14.5910   13.3310    3.3100 N   0  0  0  0  0  0  0  0  0  0  0  0
   15.4130   12.3260    2.8600 C   0  0  0  0  0  0  0  0  0  0  0  0
   16.7680   12.2660    2.7660 N   0  0  0  0  0  0  0  0  0  0  0  0
   17.3260   13.4140    3.2110 C   0  0  0  0  0  0  0  0  0  0  0  0
   16.5350   14.4880    3.6920 C   0  0  0  0  0  0  0  0  0  0  0  0
   17.4090   15.4770    4.0640 C   0  0  0  0  0  0  0  0  0  0  0  0
   18.6500   14.9590    3.7950 N   0  0  0  0  0  0  0  0  0  0  0  0
   18.6270   13.7120    3.2690 N   0  0  0  0  0  0  0  0  0  0  0  0
   19.9280   15.6290    4.0280 C   0  0  0  0  0  0  0  0  0  0  0  0
   20.4720   15.3260    5.4240 C   0  0  0  0  0  0  0  0  0  0  0  0
   19.8230   17.1330    3.7830 C   0  0  0  0  0  0  0  0  0  0  0  0
   14.7414   16.3835    4.5507 H   0  0  0  0  0  0  0  0  0  0  0  0
   13.3038   15.3872    4.1995 H   0  0  0  0  0  0  0  0  0  0  0  0
   14.8883   11.4210    2.5198 H   0  0  0  0  0  0  0  0  0  0  0  0
   17.1685   16.4648    4.4841 H   0  0  0  0  0  0  0  0  0  0  0  0
   20.6481   15.2267    3.3002 H   0  0  0  0  0  0  0  0  0  0  0  0
   19.7750   15.7142    6.1813 H   0  0  0  0  0  0  0  0  0  0  0  0
   20.5792   14.2382    5.5476 H   0  0  0  0  0  0  0  0  0  0  0  0
   21.4532   15.8075    5.5476 H   0  0  0  0  0  0  0  0  0  0  0  0
   19.7862   17.6600    4.7479 H   0  0  0  0  0  0  0  0  0  0  0  0
   20.6996   17.4736    3.2124 H   0  0  0  0  0  0  0  0  0  0  0  0
   18.9076   17.3485    3.2124 H   0  0  0  0  0  0  0  0  0  0  0  0
  2  1  1  0
  3  2  2  0
  4  3  1  0
  5  4  2  0
  6  5  1  0
  7  2  1  0
  7  6  1  0
  8  7  2  0
  9  8  1  0
 10  9  1  0
 10  6  2  0
 11  9  1  0
 12 11  1  0
 13 11  1  0
  1 14  1  0
  1 15  1  0
  4 16  1  0
  8 17  1  0
 11 18  1  0
 12 19  1  0
 12 20  1  0
 12 21  1  0
 13 22  1  0
 13 23  1  0
 13 24  1  0
M  END
$$$$
=
     RDKit          3D

 38 39  0  0  0  0  0  0  0  0999 V2000
   16.9370   12.7060    2.6260 C   0  0  0  0  0  0  0  0  0  0  0  0
   17.7850   13.7280    3.3440 C   0  0  0  0  0  0  0  0  0  0  0  0
   18.9600   13.4610    3.5940 O   0  0  0  0  0  0  0  0  0  0  0  0
   17.2000   14.9570    3.6510 N   0  0  0  0  0  0  0  0  0  0  0  0
   15.7350   15.0990    3.6810 C   0  0  0  0  0  0  0  0  0  0  0  0
   15.2260   14.8560    5.1030 C   0  0  0  0  0  0  0  0  0  0  0  0
   15.9240   15.7760    6.1080 C   0  0  0  0  0  0  0  0  0  0  0  0
   17.4530   15.7290    5.9670 C   0  0  0  0  0  0  0  0  0  0  0  0
   17.8680   15.9640    4.5020 C   0  0  1  0  0  0  0  0  0  0  0  0
   19.3910   16.2390    4.3150 C   0  0  0  0  0  0  0  0  0  0  0  0
   20.2060   15.9860    5.5950 C   0  0  0  0  0  0  0  0  0  0  0  0
   21.7060   16.1510    5.3870 C   0  0  0  0  0  0  0  0  0  0  0  0
   22.0330   17.2950    4.4840 N   0  0  0  0  0  4  0  0  0  0  0  0
   20.9320   18.2800    4.2750 C   0  0  0  0  0  0  0  0  0  0  0  0
   19.7630   17.5650    3.6150 C   0  0  0  0  0  0  0  0  0  0  0  0
   16.4161   12.0782    3.3639 H   0  0  0  0  0  0  0  0  0  0  0  0
   16.1973   13.2211    1.9955 H   0  0  0  0  0  0  0  0  0  0  0  0
   17.5797   12.0741    1.9955 H   0  0  0  0  0  0  0  0  0  0  0  0
   15.4588   16.1148    3.3617 H   0  0  0  0  0  0  0  0  0  0  0  0
   15.2822   14.3636    2.9998 H   0  0  0  0  0  0  0  0  0  0  0  0
   14.1432   15.0475    5.1337 H   0  0  0  0  0  0  0  0  0  0  0  0
   15.4445   13.8132    5.3767 H   0  0  0  0  0  0  0  0  0  0  0  0
   15.5836   16.8084    5.9400 H   0  0  0  0  0  0  0  0  0  0  0  0
   15.6657   15.4311    7.1201 H   0  0  0  0  0  0  0  0  0  0  0  0
   17.8989   16.5109    6.5993 H   0  0  0  0  0  0  0  0  0  0  0  0
   17.8087   14.7371    6.2825 H   0  0  0  0  0  0  0  0  0  0  0  0
   17.4931   16.9281    4.1279 H   0  0  0  0  0  0  0  0  0  0  0  0
   19.6946   15.4779    3.5812 H   0  0  0  0  0  0  0  0  0  0  0  0
   19.8784   16.6989    6.3660 H   0  0  0  0  0  0  0  0  0  0  0  0
   20.0282   14.9436    5.8980 H   0  0  0  0  0  0  0  0  0  0  0  0
   22.1811   16.3249    6.3637 H   0  0  0  0  0  0  0  0  0  0  0  0
   22.0822   15.2320    4.9138 H   0  0  0  0  0  0  0  0  0  0  0  0
   22.8370   17.7976    4.8863 H   0  0  0  0  0  0  0  0  0  0  0  0
   22.2235   16.8818    3.5599 H   0  0  0  0  0  0  0  0  0  0  0  0
   20.6149   18.6931    5.2439 H   0  0  0  0  0  0  0  0  0  0  0  0
   21.2800   19.1037    3.6344 H   0  0  0  0  0  0  0  0  0  0  0  0
   20.0306   17.3466    2.5706 H   0  0  0  0  0  0  0  0  0  0  0  0
   18.8895   18.2298    3.6857 H   0  0  0  0  0  0  0  0  0  0  0  0
  2  1  1  0
  3  2  2  0
  4  2  1  0
  5  4  1  0
  6  5  1  0
  7  6  1  0
  8  7  1  0
  9  4  1  0
  9  8  1  0
 10  9  1  0
 11 10  1  0
 12 11  1  0
 13 12  1  0
 14 13  1  0
 15 10  1  0
 15 14  1  0
  1 16  1  0
  1 17  1  0
  1 18  1  0
  5 19  1  0
  5 20  1  0
  6 21  1  0
  6 22  1  0
  7 23  1  0
  7 24  1  0
  8 25  1  0
  8 26  1  0
  9 27  1  6
 10 28  1  0
 11 29  1  0
 11 30  1  0
 12 31  1  0
 12 32  1  0
 13 33  1  0
 13 34  1  0
 14 35  1  0
 14 36  1  0
 15 37  1  0
 15 38  1  0
M  CHG  1  13   1
M  END
$$$$
=
     RDKit          3D

 26 26  0  0  0  0  0  0  0  0999 V2000
   20.5750   15.8120    4.6100 C   0  0  2  0  0  0  0  0  0  0  0  0
   20.9370   15.4920    6.0500 C   0  0  0  0  0  0  0  0  0  0  0  0
   22.1830   16.2330    6.4730 N   0  0  0  0  0  4  0  0  0  0  0  0
   22.4070   17.5660    5.8200 C   0  0  0  0  0  0  0  0  0  0  0  0
   21.0840   18.2010    5.4540 C   0  0  0  0  0  0  0  0  0  0  0  0
   20.3460   17.2980    4.4910 C   0  0  0  0  0  0  0  0  0  0  0  0
   19.5940   17.7790    3.6480 O   0  0  0  0  0  0  0  0  0  0  0  0
   19.3510   15.0140    4.2640 C   0  0  0  0  0  0  0  0  0  0  0  0
   19.2180   14.4250    3.2010 O   0  0  0  0  0  0  0  0  0  0  0  0
   18.4370   15.0790    5.2610 O   0  0  0  0  0  0  0  0  0  0  0  0
   16.7770   16.7720    5.5740 C   0  0  0  0  0  0  0  0  0  0  0  0
   17.1250   15.4890    4.8460 C   0  0  0  0  0  0  0  0  0  0  0  0
   21.3773   15.5443    3.9067 H   0  0  0  0  0  0  0  0  0  0  0  0
   20.1035   15.7871    6.7044 H   0  0  0  0  0  0  0  0  0  0  0  0
   21.1275   14.4117    6.1314 H   0  0  0  0  0  0  0  0  0  0  0  0
   22.1296   16.3850    7.4903 H   0  0  0  0  0  0  0  0  0  0  0  0
   22.9727   15.6417    6.1772 H   0  0  0  0  0  0  0  0  0  0  0  0
   22.9454   18.2253    6.5167 H   0  0  0  0  0  0  0  0  0  0  0  0
   22.9992   17.4206    4.9045 H   0  0  0  0  0  0  0  0  0  0  0  0
   20.4799   18.3414    6.3625 H   0  0  0  0  0  0  0  0  0  0  0  0
   21.2624   19.1777    4.9804 H   0  0  0  0  0  0  0  0  0  0  0  0
   16.8232   16.6016    6.6597 H   0  0  0  0  0  0  0  0  0  0  0  0
   17.4944   17.5579    5.2953 H   0  0  0  0  0  0  0  0  0  0  0  0
   15.7608   17.0877    5.2953 H   0  0  0  0  0  0  0  0  0  0  0  0
   17.1154   15.6629    3.7599 H   0  0  0  0  0  0  0  0  0  0  0  0
   16.3896   14.7062    5.0834 H   0  0  0  0  0  0  0  0  0  0  0  0
  2  1  1  0
  3  2  1  0
  4  3  1  0
  5  4  1  0
  6  1  1  0
  6  5  1  0
  7  6  2  0
  8  1  1  0
  9  8  2  0
 10  8  1  0
 12 10  1  0
 12 11  1  0
  1 13  1  6
  2 14  1  0
  2 15  1  0
  3 16  1  0
  3 17  1  0
  4 18  1  0
  4 19  1  0
  5 20  1  0
  5 21  1  0
 11 22  1  0
 11 23  1  0
 11 24  1  0
 12 25  1  0
 12 26  1  0
M  CHG  1   3   1
M  END
$$$$
=
     RDKit          3D

 35 34  0  0  0  0  0  0  0  0999 V2000
   19.5460   17.4070    3.3190 C   0  0  1  0  0  0  0  0  0  0  0  0
   19.6210   17.5040    1.8040 N   0  0  0  0  0  4  0  0  0  0  0  0
   19.0080   16.0160    3.6770 C   0  0  0  0  0  0  0  0  0  0  0  0
   19.7060   15.0220    3.5290 O   0  0  0  0  0  0  0  0  0  0  0  0
   17.7310   16.0650    4.1170 O   0  0  0  0  0  0  0  0  0  0  0  0
   17.4550   16.1710    5.5490 C   0  0  0  0  0  0  0  0  0  0  0  0
   16.0300   15.6190    5.7140 C   0  0  0  0  0  0  0  0  0  0  0  0
   18.4160   15.2990    6.3640 C   0  0  0  0  0  0  0  0  0  0  0  0
   17.4710   17.6330    6.0080 C   0  0  0  0  0  0  0  0  0  0  0  0
   20.9520   17.6800    3.8890 C   0  0  0  0  0  0  0  0  0  0  0  0
   21.0550   17.7900    5.4290 C   0  0  0  0  0  0  0  0  0  0  0  0
   22.0730   16.8650    6.1010 C   0  0  0  0  0  0  0  0  0  0  0  0
   21.9300   15.4870    5.5680 N   0  0  0  0  0  4  0  0  0  0  0  0
   18.8644   18.1503    3.7583 H   0  0  0  0  0  0  0  0  0  0  0  0
   20.2300   18.2916    1.5401 H   0  0  0  0  0  0  0  0  0  0  0  0
   20.0072   16.6286    1.4226 H   0  0  0  0  0  0  0  0  0  0  0  0
   18.6766   17.6575    1.4226 H   0  0  0  0  0  0  0  0  0  0  0  0
   15.7939   15.5275    6.7845 H   0  0  0  0  0  0  0  0  0  0  0  0
   15.3137   16.3047    5.2378 H   0  0  0  0  0  0  0  0  0  0  0  0
   15.9626   14.6297    5.2378 H   0  0  0  0  0  0  0  0  0  0  0  0
   18.2375   15.4610    7.4373 H   0  0  0  0  0  0  0  0  0  0  0  0
   18.2467   14.2399    6.1199 H   0  0  0  0  0  0  0  0  0  0  0  0
   19.4537   15.5702    6.1199 H   0  0  0  0  0  0  0  0  0  0  0  0
   17.4714   17.6722    7.1073 H   0  0  0  0  0  0  0  0  0  0  0  0
   18.3746   18.1283    5.6231 H   0  0  0  0  0  0  0  0  0  0  0  0
   16.5784   18.1479    5.6231 H   0  0  0  0  0  0  0  0  0  0  0  0
   21.6101   16.8598    3.5663 H   0  0  0  0  0  0  0  0  0  0  0  0
   21.2392   18.6693    3.5032 H   0  0  0  0  0  0  0  0  0  0  0  0
   21.3285   18.8267    5.6749 H   0  0  0  0  0  0  0  0  0  0  0  0
   20.0726   17.4802    5.8149 H   0  0  0  0  0  0  0  0  0  0  0  0
   23.0898   17.2316    5.8969 H   0  0  0  0  0  0  0  0  0  0  0  0
   21.8931   16.8548    7.1861 H   0  0  0  0  0  0  0  0  0  0  0  0
   21.8609   14.8215    6.3511 H   0  0  0  0  0  0  0  0  0  0  0  0
   21.0784   15.4285    4.9916 H   0  0  0  0  0  0  0  0  0  0  0  0
   22.7514   15.2549    4.9916 H   0  0  0  0  0  0  0  0  0  0  0  0
  2  1  1  0
  3  1  1  0
  4  3  2  0
  5  3  1  0
  6  5  1  0
  7  6  1  0
  8  6  1  0
  9  6  1  0
 10  1  1  0
 11 10  1  0
 12 11  1  0
 13 12  1  0
  1 14  1  1
  2 15  1  0
  2 16  1  0
  2 17  1  0
  7 18  1  0
  7 19  1  0
  7 20  1  0
  8 21  1  0
  8 22  1  0
  8 23  1  0
  9 24  1  0
  9 25  1  0
  9 26  1  0
 10 27  1  0
 10 28  1  0
 11 29  1  0
 11 30  1  0
 12 31  1  0
 12 32  1  0
 13 33  1  0
 13 34  1  0
 13 35  1  0
M  CHG  2   2   1  13   1
M  END
$$$$
=
     RDKit          3D

 35 36  0  0  0  0  0  0  0  0999 V2000
   17.9910   12.9830    3.1850 O   0  0  0  0  0  0  0  0  0  0  0  0
   17.2760   13.9300    3.4970 C   0  0  0  0  0  0  0  0  0  0  0  0
   17.7430   14.9550    4.3050 N   0  0  0  0  0  0  0  0  0  0  0  0
   19.1270   14.9690    4.7390 C   0  0  0  0  0  0  0  0  0  0  0  0
   19.9240   16.0800    4.0390 C   0  0  0  0  0  0  0  0  0  0  0  0
   21.1520   16.5210    4.8220 C   0  0  0  0  0  0  0  0  0  0  0  0
   21.6570   15.3890    5.6470 N   0  0  0  0  0  4  0  0  0  0  0  0
   20.7030   14.9140    6.6990 C   0  0  0  0  0  0  0  0  0  0  0  0
   19.2530   15.0780    6.2540 C   0  0  0  0  0  0  0  0  0  0  0  0
   15.8220   14.0870    3.0780 C   0  0  0  0  0  0  0  0  0  0  0  0
   14.9290   14.6570    4.1870 C   0  0  0  0  0  0  0  0  0  0  0  0
   13.5810   13.9910    3.9680 C   0  0  0  0  0  0  0  0  0  0  0  0
   13.9660   12.5740    3.5880 C   0  0  0  0  0  0  0  0  0  0  0  0
   15.1780   12.7480    2.6780 C   0  0  0  0  0  0  0  0  0  0  0  0
   17.1053   15.7089    4.5981 H   0  0  0  0  0  0  0  0  0  0  0  0
   19.5612   14.0022    4.4446 H   0  0  0  0  0  0  0  0  0  0  0  0
   20.2505   15.7098    3.0560 H   0  0  0  0  0  0  0  0  0  0  0  0
   19.2607   16.9532    3.9521 H   0  0  0  0  0  0  0  0  0  0  0  0
   21.9370   16.8406    4.1208 H   0  0  0  0  0  0  0  0  0  0  0  0
   20.8810   17.3587    5.4815 H   0  0  0  0  0  0  0  0  0  0  0  0
   21.8623   14.5992    5.0185 H   0  0  0  0  0  0  0  0  0  0  0  0
   22.4906   15.7363    6.1424 H   0  0  0  0  0  0  0  0  0  0  0  0
   20.8962   13.8505    6.9028 H   0  0  0  0  0  0  0  0  0  0  0  0
   20.8570   15.5204    7.6038 H   0  0  0  0  0  0  0  0  0  0  0  0
   18.8886   16.0652    6.5745 H   0  0  0  0  0  0  0  0  0  0  0  0
   18.6547   14.2768    6.7123 H   0  0  0  0  0  0  0  0  0  0  0  0
   15.8739   14.7810    2.2262 H   0  0  0  0  0  0  0  0  0  0  0  0
   15.3313   14.4040    5.1790 H   0  0  0  0  0  0  0  0  0  0  0  0
   14.8648   15.7545    4.1505 H   0  0  0  0  0  0  0  0  0  0  0  0
   12.9778   14.0049    4.8878 H   0  0  0  0  0  0  0  0  0  0  0  0
   12.9643   14.4939    3.2086 H   0  0  0  0  0  0  0  0  0  0  0  0
   14.2293   11.9883    4.4811 H   0  0  0  0  0  0  0  0  0  0  0  0
   13.1447   12.0309    3.0975 H   0  0  0  0  0  0  0  0  0  0  0  0
   15.8894   11.9224    2.8273 H   0  0  0  0  0  0  0  0  0  0  0  0
   14.8884   12.7420    1.6168 H   0  0  0  0  0  0  0  0  0  0  0  0
  2  1  2  0
  3  2  1  0
  4  3  1  0
  5  4  1  0
  6  5  1  0
  7  6  1  0
  8  7  1  0
  9  4  1  0
  9  8  1  0
 10  2  1  0
 11 10  1  0
 12 11  1  0
 13 12  1  0
 14 13  1  0
 14 10  1  0
  3 15  1  0
  4 16  1  0
  5 17  1  0
  5 18  1  0
  6 19  1  0
  6 20  1  0
  7 21  1  0
  7 22  1  0
  8 23  1  0
  8 24  1  0
  9 25  1  0
  9 26  1  0
 10 27  1  0
 11 28  1  0
 11 29  1  0
 12 30  1  0
 12 31  1  0
 13 32  1  0
 13 33  1  0
 14 34  1  0
 14 35  1  0
M  CHG  1   7   1
M  END
$$$$
=
     RDKit          3D

 33 33  0  0  0  0  0  0  0  0999 V2000
   17.5710   16.3960    4.6030 C   0  0  2  0  0  0  0  0  0  0  0  0
   18.4430   15.9190    3.4380 N   0  0  0  0  0  4  0  0  0  0  0  0
   19.8110   15.6060    3.9660 C   0  0  0  0  0  0  0  0  0  0  0  0
   19.6080   15.4510    5.4610 C   0  0  2  0  0  0  0  0  0  0  0  0
   18.5490   16.5010    5.7670 C   0  0  0  0  0  0  0  0  0  0  0  0
   16.4150   15.4370    4.9110 C   0  0  0  0  0  0  0  0  0  0  0  0
   15.7090   15.5020    5.9030 O   0  0  0  0  0  0  0  0  0  0  0  0
   16.3070   14.5100    3.9100 O   0  0  0  0  0  0  0  0  0  0  0  0
   15.1300   12.6010    2.9870 C   0  0  0  0  0  0  0  0  0  0  0  0
   15.0100   13.8920    3.7750 C   0  0  0  0  0  0  0  0  0  0  0  0
   20.9120   15.6840    6.1760 C   0  0  0  0  0  0  0  0  0  0  0  0
   21.0950   15.3890    7.3460 O   0  0  0  0  0  0  0  0  0  0  0  0
   21.8050   16.2780    5.3460 O   0  0  0  0  0  0  0  0  0  0  0  0
   22.3820   17.5100    5.8150 C   0  0  0  0  0  0  0  0  0  0  0  0
   22.3390   18.5530    4.7150 C   0  0  0  0  0  0  0  0  0  0  0  0
   17.0691   17.3489    4.3791 H   0  0  0  0  0  0  0  0  0  0  0  0
   18.0305   15.0736    3.0185 H   0  0  0  0  0  0  0  0  0  0  0  0
   18.5018   16.6525    2.7173 H   0  0  0  0  0  0  0  0  0  0  0  0
   20.1949   14.6738    3.5260 H   0  0  0  0  0  0  0  0  0  0  0  0
   20.5458   16.3868    3.7199 H   0  0  0  0  0  0  0  0  0  0  0  0
   19.2864   14.4512    5.7881 H   0  0  0  0  0  0  0  0  0  0  0  0
   18.0459   16.2814    6.7202 H   0  0  0  0  0  0  0  0  0  0  0  0
   18.9740   17.5103    5.8705 H   0  0  0  0  0  0  0  0  0  0  0  0
   15.2089   11.7527    3.6828 H   0  0  0  0  0  0  0  0  0  0  0  0
   14.2398   12.4740    2.3534 H   0  0  0  0  0  0  0  0  0  0  0  0
   16.0284   12.6403    2.3534 H   0  0  0  0  0  0  0  0  0  0  0  0
   14.3322   14.5792    3.2474 H   0  0  0  0  0  0  0  0  0  0  0  0
   14.6104   13.6688    4.7753 H   0  0  0  0  0  0  0  0  0  0  0  0
   21.8120   17.8722    6.6833 H   0  0  0  0  0  0  0  0  0  0  0  0
   23.4283   17.3323    6.1043 H   0  0  0  0  0  0  0  0  0  0  0  0
   22.2976   19.5568    5.1629 H   0  0  0  0  0  0  0  0  0  0  0  0
   23.2415   18.4664    4.0921 H   0  0  0  0  0  0  0  0  0  0  0  0
   21.4467   18.3924    4.0921 H   0  0  0  0  0  0  0  0  0  0  0  0
  2  1  1  0
  3  2  1  0
  4  3  1  0
  5  4  1  0
  5  1  1  0
  6  1  1  0
  7  6  2  0
  8  6  1  0
 10  9  1  0
 10  8  1  0
 11  4  1  0
 12 11  2  0
 13 11  1  0
 14 13  1  0
 15 14  1  0
  1 16  1  6
  2 17  1  0
  2 18  1  0
  3 19  1  0
  3 20  1  0
  4 21  1  6
  5 22  1  0
  5 23  1  0
  9 24  1  0
  9 25  1  0
  9 26  1  0
 10 27  1  0
 10 28  1  0
 14 29  1  0
 14 30  1  0
 15 31  1  0
 15 32  1  0
 15 33  1  0
M  CHG  1   2   1
M  END
$$$$
=
     RDKit          3D

 48 50  0  0  0  0  0  0  0  0999 V2000
   25.7790   24.1770   12.7530 N   0  0  0  0  0  0  0  0  0  0  0  0
   26.6790   24.6350   11.6250 C   0  0  0  0  0  0  0  0  0  0  0  0
   28.1470   24.8670   12.0600 C   0  0  0  0  0  0  0  0  0  0  0  0
   28.2290   25.1620   13.5440 N   0  0  0  0  0  4  0  0  0  0  0  0
   27.7150   24.0070   14.3860 C   0  0  0  0  0  0  0  0  0  0  0  0
   26.5370   23.2810   13.6940 C   0  0  0  0  0  0  0  0  0  0  0  0
   25.3650   26.6420   12.9530 O   0  0  0  0  0  0  0  0  0  0  0  0
   24.9050   25.3950   13.5140 S   0  0  0  0  0  6  0  0  0  0  0  0
   24.9110   25.1690   14.9400 O   0  0  0  0  0  0  0  0  0  0  0  0
   23.3400   25.0840   12.9910 N   0  0  0  0  0  0  0  0  0  0  0  0
   22.2220   25.4420   13.9310 C   0  0  0  0  0  0  0  0  0  0  0  0
   21.9810   26.9620   14.0400 C   0  0  0  0  0  0  0  0  0  0  0  0
   22.6110   27.7040   12.8970 N   0  0  0  0  0  4  0  0  0  0  0  0
   22.4670   27.0200   11.5720 C   0  0  0  0  0  0  0  0  0  0  0  0
   23.0400   25.5840   11.5990 C   0  0  0  0  0  0  0  0  0  0  0  0
   29.5800   25.6540   14.0070 C   0  0  0  0  0  0  0  0  0  0  0  0
   29.5340   27.0430   14.5780 C   0  0  0  0  0  0  0  0  0  0  0  0
   28.6060   27.9830   14.0990 C   0  0  0  0  0  0  0  0  0  0  0  0
   28.5780   29.2770   14.6180 C   0  0  0  0  0  0  0  0  0  0  0  0
   29.4750   29.6470   15.6180 C   0  0  0  0  0  0  0  0  0  0  0  0
   30.3950   28.7230   16.1060 C   0  0  0  0  0  0  0  0  0  0  0  0
   30.4250   27.4260   15.5920 C   0  0  0  0  0  0  0  0  0  0  0  0
   26.6667   23.8679   10.8367 H   0  0  0  0  0  0  0  0  0  0  0  0
   26.2896   25.6018   11.2732 H   0  0  0  0  0  0  0  0  0  0  0  0
   28.7355   23.9643   11.8388 H   0  0  0  0  0  0  0  0  0  0  0  0
   28.5462   25.7299   11.5067 H   0  0  0  0  0  0  0  0  0  0  0  0
   27.5937   25.9587   13.6940 H   0  0  0  0  0  0  0  0  0  0  0  0
   28.5331   23.2892   14.5455 H   0  0  0  0  0  0  0  0  0  0  0  0
   27.3563   24.4112   15.3441 H   0  0  0  0  0  0  0  0  0  0  0  0
   25.8450   22.9158   14.4671 H   0  0  0  0  0  0  0  0  0  0  0  0
   26.9563   22.4541   13.1021 H   0  0  0  0  0  0  0  0  0  0  0  0
   21.2975   24.9666   13.5714 H   0  0  0  0  0  0  0  0  0  0  0  0
   22.5093   25.0847   14.9309 H   0  0  0  0  0  0  0  0  0  0  0  0
   20.8977   27.1530   14.0360 H   0  0  0  0  0  0  0  0  0  0  0  0
   22.4387   27.3171   14.9751 H   0  0  0  0  0  0  0  0  0  0  0  0
   22.1701   28.6325   12.8316 H   0  0  0  0  0  0  0  0  0  0  0  0
   23.6201   27.7567   13.0966 H   0  0  0  0  0  0  0  0  0  0  0  0
   21.3996   26.9721   11.3107 H   0  0  0  0  0  0  0  0  0  0  0  0
   23.0322   27.5986   10.8265 H   0  0  0  0  0  0  0  0  0  0  0  0
   22.3067   24.9073   11.1360 H   0  0  0  0  0  0  0  0  0  0  0  0
   23.9925   25.6043   11.0491 H   0  0  0  0  0  0  0  0  0  0  0  0
   29.9563   24.9689   14.7810 H   0  0  0  0  0  0  0  0  0  0  0  0
   30.2398   25.6812   13.1273 H   0  0  0  0  0  0  0  0  0  0  0  0
   27.8965   27.6961   13.3089 H   0  0  0  0  0  0  0  0  0  0  0  0
   27.8473   30.0061   14.2377 H   0  0  0  0  0  0  0  0  0  0  0  0
   29.4562   30.6699   16.0222 H   0  0  0  0  0  0  0  0  0  0  0  0
   31.0996   29.0159   16.8983 H   0  0  0  0  0  0  0  0  0  0  0  0
   31.1517   26.6993   15.9842 H   0  0  0  0  0  0  0  0  0  0  0  0
  2  1  1  0
  3  2  1  0
  4  3  1  0
  5  4  1  0
  6  1  1  0
  6  5  1  0
  8  7  2  0
  8  1  1  0
  9  8  2  0
 10  8  1  0
 11 10  1  0
 12 11  1  0
 13 12  1  0
 14 13  1  0
 15 14  1  0
 15 10  1  0
 16  4  1  0
 17 16  1  0
 18 17  2  0
 19 18  1  0
 20 19  2  0
 21 20  1  0
 22 17  1  0
 22 21  2  0
  2 23  1  0
  2 24  1  0
  3 25  1  0
  3 26  1  0
  4 27  1  0
  5 28  1  0
  5 29  1  0
  6 30  1  0
  6 31  1  0
 11 32  1  0
 11 33  1  0
 12 34  1  0
 12 35  1  0
 13 36  1  0
 13 37  1  0
 14 38  1  0
 14 39  1  0
 15 40  1  0
 15 41  1  0
 16 42  1  0
 16 43  1  0
 18 44  1  0
 19 45  1  0
 20 46  1  0
 21 47  1  0
 22 48  1  0
M  CHG  2   4   1  13   1
M  END
$$$$
=
     RDKit          3D

 42 43  0  0  0  0  0  0  0  0999 V2000
   11.4300   13.7450    3.5830 C   0  0  0  0  0  0  0  0  0  0  0  0
   12.2980   14.6350    4.1810 C   0  0  0  0  0  0  0  0  0  0  0  0
   13.6430   14.5290    4.1230 N   0  0  0  0  0  0  0  0  0  0  0  0
   14.1230   13.4880    3.4310 C   0  0  0  0  0  0  0  0  0  0  0  0
   13.3640   12.5690    2.8170 N   0  0  0  0  0  0  0  0  0  0  0  0
   12.0260   12.6910    2.9030 C   0  0  0  0  0  0  0  0  0  0  0  0
   11.2930   11.7240    2.1980 N   0  0  0  0  0  0  0  0  0  0  0  0
    9.9650   13.8850    3.6880 C   0  0  0  0  0  0  0  0  0  0  0  0
    9.3300   14.7740    3.1460 O   0  0  0  0  0  0  0  0  0  0  0  0
    9.4490   12.8980    4.4630 O   0  0  0  0  0  0  0  0  0  0  0  0
    9.5040   13.8820    6.6740 C   0  0  0  0  0  0  0  0  0  0  0  0
    8.6310   13.3230    5.5660 C   0  0  0  0  0  0  0  0  0  0  0  0
   15.8790   13.2870    3.2820 S   0  0  0  0  0  0  0  0  0  0  0  0
   16.4090   15.0100    3.5360 C   0  0  0  0  0  0  0  0  0  0  0  0
   17.9130   15.1390    3.7510 C   0  0  0  0  0  0  0  0  0  0  0  0
   18.6750   14.3730    3.1650 O   0  0  0  0  0  0  0  0  0  0  0  0
   18.2860   16.1990    4.5580 N   0  0  0  0  0  0  0  0  0  0  0  0
   19.5850   16.6370    4.9010 C   0  0  0  0  0  0  0  0  0  0  0  0
   20.1760   17.7640    4.3180 C   0  0  0  0  0  0  0  0  0  0  0  0
   21.4620   18.1730    4.6830 C   0  0  0  0  0  0  0  0  0  0  0  0
   22.1760   17.4600    5.6380 C   0  0  0  0  0  0  0  0  0  0  0  0
   21.6030   16.3370    6.2290 C   0  0  0  0  0  0  0  0  0  0  0  0
   20.3100   15.9130    5.8730 C   0  0  0  0  0  0  0  0  0  0  0  0
   19.7520   14.6870    6.5500 C   0  0  0  0  0  0  0  0  0  0  0  0
   11.8692   15.4811    4.7380 H   0  0  0  0  0  0  0  0  0  0  0  0
   10.2633   11.7466    2.2123 H   0  0  0  0  0  0  0  0  0  0  0  0
   11.7847   10.9916    1.6662 H   0  0  0  0  0  0  0  0  0  0  0  0
    9.0772   13.6087    7.6503 H   0  0  0  0  0  0  0  0  0  0  0  0
   10.5182   13.4649    6.5875 H   0  0  0  0  0  0  0  0  0  0  0  0
    9.5495   14.9776    6.5875 H   0  0  0  0  0  0  0  0  0  0  0  0
    7.9337   14.1018    5.2236 H   0  0  0  0  0  0  0  0  0  0  0  0
    8.0671   12.4605    5.9508 H   0  0  0  0  0  0  0  0  0  0  0  0
   16.1287   15.5984    2.6498 H   0  0  0  0  0  0  0  0  0  0  0  0
   15.9112   15.3795    4.4447 H   0  0  0  0  0  0  0  0  0  0  0  0
   17.5114   16.7430    4.9641 H   0  0  0  0  0  0  0  0  0  0  0  0
   19.6200   18.3366    3.5610 H   0  0  0  0  0  0  0  0  0  0  0  0
   21.9095   19.0612    4.2131 H   0  0  0  0  0  0  0  0  0  0  0  0
   23.1881   17.7808    5.9256 H   0  0  0  0  0  0  0  0  0  0  0  0
   22.1695   15.7735    6.9850 H   0  0  0  0  0  0  0  0  0  0  0  0
   19.8092   14.8127    7.6413 H   0  0  0  0  0  0  0  0  0  0  0  0
   18.7024   14.5489    6.2513 H   0  0  0  0  0  0  0  0  0  0  0  0
   20.3373   13.8048    6.2513 H   0  0  0  0  0  0  0  0  0  0  0  0
  2  1  2  0
  3  2  1  0
  4  3  2  0
  5  4  1  0
  6  5  2  0
  6  1  1  0
  7  6  1  0
  8  1  1  0
  9  8  2  0
 10  8  1  0
 12 10  1  0
 12 11  1  0
 13  4  1  0
 14 13  1  0
 15 14  1  0
 16 15  2  0
 17 15  1  0
 18 17  1  0
 19 18  2  0
 20 19  1  0
 21 20  2  0
 22 21  1  0
 23 22  2  0
 23 18  1  0
 24 23  1  0
  2 25  1  0
  7 26  1  0
  7 27  1  0
 11 28  1  0
 11 29  1  0
 11 30  1  0
 12 31  1  0
 12 32  1  0
 14 33  1  0
 14 34  1  0
 17 35  1  0
 19 36  1  0
 20 37  1  0
 21 38  1  0
 22 39  1  0
 24 40  1  0
 24 41  1  0
 24 42  1  0
M  END
$$$$
=
     RDKit          3D

 41 42  0  0  0  0  0  0  0  0999 V2000
   27.2800   26.9200   12.9750 C   0  0  1  0  0  0  0  0  0  0  0  0
   26.2210   26.6390   14.0440 C   0  0  0  0  0  0  0  0  0  0  0  0
   26.7930   27.1470   15.2800 N   0  0  0  0  0  0  0  0  0  0  0  0
   28.2320   27.4940   15.1320 C   0  0  0  0  0  0  0  0  0  0  0  0
   28.5760   26.8260   13.7680 C   0  0  0  0  0  0  0  0  0  0  0  0
   29.1360   26.8660   16.2280 C   0  0  0  0  0  0  0  0  0  0  0  0
   29.7290   27.8870   17.1960 C   0  0  0  0  0  0  0  0  0  0  0  0
   30.5240   28.9690   16.4690 C   0  0  0  0  0  0  0  0  0  0  0  0
   29.8690   29.4560   15.1770 C   0  0  0  0  0  0  0  0  0  0  0  0
   28.4080   29.0320   15.0530 C   0  0  0  0  0  0  0  0  0  0  0  0
   26.0650   27.3880   16.4360 C   0  0  0  0  0  0  0  0  0  0  0  0
   26.5500   27.9240   17.4270 O   0  0  0  0  0  0  0  0  0  0  0  0
   24.6190   26.9630   16.4260 C   0  0  0  0  0  0  0  0  0  0  0  0
   27.2240   25.9160   11.8610 N   0  0  0  0  0  4  0  0  0  0  0  0
   27.8570   23.6940   10.9620 C   0  0  0  0  0  0  0  0  0  0  0  0
   28.2470   24.8200   11.8970 C   0  0  0  0  0  0  0  0  0  0  0  0
   27.1505   27.8885   12.4698 H   0  0  0  0  0  0  0  0  0  0  0  0
   25.2835   27.1634   13.8072 H   0  0  0  0  0  0  0  0  0  0  0  0
   25.9741   25.5692   14.1111 H   0  0  0  0  0  0  0  0  0  0  0  0
   28.8721   25.7762   13.9103 H   0  0  0  0  0  0  0  0  0  0  0  0
   29.4204   27.3135   13.2587 H   0  0  0  0  0  0  0  0  0  0  0  0
   28.5339   26.1492   16.8056 H   0  0  0  0  0  0  0  0  0  0  0  0
   29.9801   26.3860   15.7113 H   0  0  0  0  0  0  0  0  0  0  0  0
   28.9104   28.3632   17.7556 H   0  0  0  0  0  0  0  0  0  0  0  0
   30.4161   27.3561   17.8713 H   0  0  0  0  0  0  0  0  0  0  0  0
   30.6372   29.8290   17.1454 H   0  0  0  0  0  0  0  0  0  0  0  0
   31.4893   28.5221   16.1888 H   0  0  0  0  0  0  0  0  0  0  0  0
   29.9187   30.5546   15.1512 H   0  0  0  0  0  0  0  0  0  0  0  0
   30.4163   29.0006   14.3385 H   0  0  0  0  0  0  0  0  0  0  0  0
   27.8347   29.4958   15.8692 H   0  0  0  0  0  0  0  0  0  0  0  0
   28.0448   29.3617   14.0684 H   0  0  0  0  0  0  0  0  0  0  0  0
   24.2606   26.8577   17.4606 H   0  0  0  0  0  0  0  0  0  0  0  0
   24.0173   27.7223   15.9050 H   0  0  0  0  0  0  0  0  0  0  0  0
   24.5238   25.9989   15.9050 H   0  0  0  0  0  0  0  0  0  0  0  0
   26.2929   25.4760   11.8826 H   0  0  0  0  0  0  0  0  0  0  0  0
   27.4251   26.4490   11.0029 H   0  0  0  0  0  0  0  0  0  0  0  0
   27.5531   22.8165   11.5516 H   0  0  0  0  0  0  0  0  0  0  0  0
   27.0187   24.0178   10.3277 H   0  0  0  0  0  0  0  0  0  0  0  0
   28.7160   23.4299   10.3277 H   0  0  0  0  0  0  0  0  0  0  0  0
   29.2217   25.2253   11.5876 H   0  0  0  0  0  0  0  0  0  0  0  0
   28.3065   24.4247   12.9218 H   0  0  0  0  0  0  0  0  0  0  0  0
  2  1  1  0
  3  2  1  0
  4  3  1  0
  5  1  1  0
  5  4  1  0
  6  4  1  0
  7  6  1  0
  8  7  1  0
  9  8  1  0
 10  9  1  0
 10  4  1  0
 11  3  1  0
 12 11  2  0
 13 11  1  0
 14  1  1  0
 16 14  1  0
 16 15  1  0
  1 17  1  6
  2 18  1  0
  2 19  1  0
  5 20  1  0
  5 21  1  0
  6 22  1  0
  6 23  1  0
  7 24  1  0
  7 25  1  0
  8 26  1  0
  8 27  1  0
  9 28  1  0
  9 29  1  0
 10 30  1  0
 10 31  1  0
 13 32  1  0
 13 33  1  0
 13 34  1  0
 14 35  1  0
 14 36  1  0
 15 37  1  0
 15 38  1  0
 15 39  1  0
 16 40  1  0
 16 41  1  0
M  CHG  1  14   1
M  END
$$$$
=
     RDKit          3D

 42 44  0  0  0  0  0  0  0  0999 V2000
   18.2590   14.2260    4.1490 C   0  0  2  0  0  0  0  0  0  0  0  0
   16.8470   14.6770    4.4310 C   0  0  0  0  0  0  0  0  0  0  0  0
   16.5190   15.7370    5.2740 C   0  0  0  0  0  0  0  0  0  0  0  0
   17.3740   16.6830    6.0450 C   0  0  0  0  0  0  0  0  0  0  0  0
   15.1540   15.8500    5.3110 N   0  0  0  0  0  0  0  0  0  0  0  0
   14.5710   14.8850    4.5310 C   0  0  0  0  0  0  0  0  0  0  0  0
   15.5940   14.1360    3.9510 C   0  0  0  0  0  0  0  0  0  0  0  0
   15.2130   13.0890    3.0790 C   0  0  0  0  0  0  0  0  0  0  0  0
   13.8570   12.8300    2.8370 C   0  0  0  0  0  0  0  0  0  0  0  0
   12.8700   13.5970    3.4440 C   0  0  0  0  0  0  0  0  0  0  0  0
   13.2100   14.6420    4.3010 C   0  0  0  0  0  0  0  0  0  0  0  0
   20.8390   17.7150    3.8730 C   0  0  0  0  0  0  0  0  0  0  0  0
   21.0370   16.7460    4.8580 C   0  0  0  0  0  0  0  0  0  0  0  0
   20.1870   15.6420    4.9570 C   0  0  0  0  0  0  0  0  0  0  0  0
   19.1210   15.4770    4.0590 C   0  0  0  0  0  0  0  0  0  0  0  0
   18.9270   16.4590    3.0740 C   0  0  0  0  0  0  0  0  0  0  0  0
   19.7780   17.5690    2.9830 C   0  0  0  0  0  0  0  0  0  0  0  0
   22.8600   18.6000    4.7610 C   0  0  0  0  0  0  0  0  0  0  0  0
   21.7440   18.7360    3.8880 O   0  0  0  0  0  0  0  0  0  0  0  0
   18.4440   13.2990    2.9400 C   0  0  0  0  0  0  0  0  0  0  0  0
   18.4890   11.8630    3.3710 N   0  0  0  0  0  4  0  0  0  0  0  0
   18.5720   13.5758    4.9792 H   0  0  0  0  0  0  0  0  0  0  0  0
   17.2246   16.5177    7.1222 H   0  0  0  0  0  0  0  0  0  0  0  0
   18.4306   16.5126    5.7910 H   0  0  0  0  0  0  0  0  0  0  0  0
   17.0980   17.7171    5.7910 H   0  0  0  0  0  0  0  0  0  0  0  0
   14.6381   16.5605    5.8495 H   0  0  0  0  0  0  0  0  0  0  0  0
   15.9839   12.4760    2.5892 H   0  0  0  0  0  0  0  0  0  0  0  0
   13.5713   12.0115    2.1599 H   0  0  0  0  0  0  0  0  0  0  0  0
   11.8105   13.3773    3.2462 H   0  0  0  0  0  0  0  0  0  0  0  0
   12.4347   15.2567    4.7817 H   0  0  0  0  0  0  0  0  0  0  0  0
   21.8728   16.8531    5.5651 H   0  0  0  0  0  0  0  0  0  0  0  0
   20.3547   14.8946    5.7465 H   0  0  0  0  0  0  0  0  0  0  0  0
   18.0942   16.3554    2.3628 H   0  0  0  0  0  0  0  0  0  0  0  0
   19.6070   18.3279    2.2053 H   0  0  0  0  0  0  0  0  0  0  0  0
   22.5161   18.6419    5.8050 H   0  0  0  0  0  0  0  0  0  0  0  0
   23.3545   17.6349    4.5763 H   0  0  0  0  0  0  0  0  0  0  0  0
   23.5718   19.4180    4.5763 H   0  0  0  0  0  0  0  0  0  0  0  0
   17.6031   13.4407    2.2451 H   0  0  0  0  0  0  0  0  0  0  0  0
   19.3950   13.5488    2.4468 H   0  0  0  0  0  0  0  0  0  0  0  0
   18.4906   11.8132    4.3998 H   0  0  0  0  0  0  0  0  0  0  0  0
   17.6631   11.3685    3.0046 H   0  0  0  0  0  0  0  0  0  0  0  0
   19.3442   11.4212    3.0046 H   0  0  0  0  0  0  0  0  0  0  0  0
  2  1  1  0
  3  2  2  0
  4  3  1  0
  5  3  1  0
  6  5  1  0
  7  6  2  0
  7  2  1  0
  8  7  1  0
  9  8  2  0
 10  9  1  0
 11 10  2  0
 11  6  1  0
 13 12  2  0
 14 13  1  0
 15 14  2  0
 15  1  1  0
 16 15  1  0
 17 16  2  0
 17 12  1  0
 19 12  1  0
 19 18  1  0
 20  1  1  0
 21 20  1  0
  1 22  1  1
  4 23  1  0
  4 24  1  0
  4 25  1  0
  5 26  1  0
  8 27  1  0
  9 28  1  0
 10 29  1  0
 11 30  1  0
 13 31  1  0
 14 32  1  0
 16 33  1  0
 17 34  1  0
 18 35  1  0
 18 36  1  0
 18 37  1  0
 20 38  1  0
 20 39  1  0
 21 40  1  0
 21 41  1  0
 21 42  1  0
M  CHG  1  21   1
M  END
$$$$
=
     RDKit          3D

 47 46  0  0  0  0  0  0  0  0999 V2000
   18.9070   14.8900    4.4610 N   0  0  0  0  0  4  0  0  0  0  0  0
   17.6850   14.8130    3.5350 C   0  0  0  0  0  0  0  0  0  0  0  0
   17.0120   13.3960    3.4320 C   0  0  2  0  0  0  0  0  0  0  0  0
   17.9070   12.4470    2.6830 N   0  0  0  0  0  4  0  0  0  0  0  0
   15.6260   13.4240    2.7690 C   0  0  0  0  0  0  0  0  0  0  0  0
   13.9560   14.7270    4.1990 C   0  0  0  0  0  0  0  0  0  0  0  0
   14.4340   13.3580    3.7340 C   0  0  0  0  0  0  0  0  0  0  0  0
   20.0310   15.7750    3.8670 C   0  0  0  0  0  0  0  0  0  0  0  0
   19.4940   17.1630    3.4890 C   0  0  0  0  0  0  0  0  0  0  0  0
   20.1350   18.2950    4.2920 C   0  0  0  0  0  0  0  0  0  0  0  0
   19.7210   17.4050    1.9940 C   0  0  0  0  0  0  0  0  0  0  0  0
   18.5440   15.3870    5.8710 C   0  0  0  0  0  0  0  0  0  0  0  0
   17.1270   15.9860    5.9230 C   0  0  0  0  0  0  0  0  0  0  0  0
   17.1320   17.5000    6.1440 C   0  0  0  0  0  0  0  0  0  0  0  0
   16.3380   15.3110    7.0480 C   0  0  0  0  0  0  0  0  0  0  0  0
   19.2573   13.9247    4.5412 H   0  0  0  0  0  0  0  0  0  0  0  0
   16.9307   15.5218    3.9072 H   0  0  0  0  0  0  0  0  0  0  0  0
   18.0512   15.0513    2.5255 H   0  0  0  0  0  0  0  0  0  0  0  0
   16.8670   13.0504    4.4662 H   0  0  0  0  0  0  0  0  0  0  0  0
   18.4430   11.8786    3.3542 H   0  0  0  0  0  0  0  0  0  0  0  0
   17.3336   11.8293    2.0910 H   0  0  0  0  0  0  0  0  0  0  0  0
   18.5572   12.9833    2.0910 H   0  0  0  0  0  0  0  0  0  0  0  0
   15.5444   14.3569    2.1920 H   0  0  0  0  0  0  0  0  0  0  0  0
   15.5668   12.5159    2.1510 H   0  0  0  0  0  0  0  0  0  0  0  0
   13.9453   14.7576    5.2985 H   0  0  0  0  0  0  0  0  0  0  0  0
   14.6366   15.5022    3.8172 H   0  0  0  0  0  0  0  0  0  0  0  0
   12.9408   14.9101    3.8172 H   0  0  0  0  0  0  0  0  0  0  0  0
   14.7324   12.7743    4.6173 H   0  0  0  0  0  0  0  0  0  0  0  0
   13.6005   12.8908    3.1891 H   0  0  0  0  0  0  0  0  0  0  0  0
   20.8313   15.8894    4.6129 H   0  0  0  0  0  0  0  0  0  0  0  0
   20.4181   15.2890    2.9593 H   0  0  0  0  0  0  0  0  0  0  0  0
   18.4205   17.1694    3.7287 H   0  0  0  0  0  0  0  0  0  0  0  0
   20.0203   18.0925    5.3671 H   0  0  0  0  0  0  0  0  0  0  0  0
   21.2045   18.3610    4.0433 H   0  0  0  0  0  0  0  0  0  0  0  0
   19.6414   19.2461    4.0433 H   0  0  0  0  0  0  0  0  0  0  0  0
   20.4680   18.2014    1.8608 H   0  0  0  0  0  0  0  0  0  0  0  0
   20.0841   16.4793    1.5237 H   0  0  0  0  0  0  0  0  0  0  0  0
   18.7740   17.7082    1.5237 H   0  0  0  0  0  0  0  0  0  0  0  0
   18.5977   14.5402    6.5710 H   0  0  0  0  0  0  0  0  0  0  0  0
   19.2577   16.1770    6.1475 H   0  0  0  0  0  0  0  0  0  0  0  0
   16.6553   15.8018    4.9465 H   0  0  0  0  0  0  0  0  0  0  0  0
   17.1327   17.7130    7.2232 H   0  0  0  0  0  0  0  0  0  0  0  0
   18.0316   17.9348    5.6839 H   0  0  0  0  0  0  0  0  0  0  0  0
   16.2353   17.9407    5.6839 H   0  0  0  0  0  0  0  0  0  0  0  0
   16.7281   15.6448    8.0208 H   0  0  0  0  0  0  0  0  0  0  0  0
   15.2756   15.5841    6.9657 H   0  0  0  0  0  0  0  0  0  0  0  0
   16.4433   14.2191    6.9657 H   0  0  0  0  0  0  0  0  0  0  0  0
  2  1  1  0
  3  2  1  0
  4  3  1  0
  5  3  1  0
  7  6  1  0
  7  5  1  0
  8  1  1  0
  9  8  1  0
 10  9  1  0
 11  9  1  0
 12  1  1  0
 13 12  1  0
 14 13  1  0
 15 13  1  0
  1 16  1  0
  2 17  1  0
  2 18  1  0
  3 19  1  1
  4 20  1  0
  4 21  1  0
  4 22  1  0
  5 23  1  0
  5 24  1  0
  6 25  1  0
  6 26  1  0
  6 27  1  0
  7 28  1  0
  7 29  1  0
  8 30  1  0
  8 31  1  0
  9 32  1  0
 10 33  1  0
 10 34  1  0
 10 35  1  0
 11 36  1  0
 11 37  1  0
 11 38  1  0
 12 39  1  0
 12 40  1  0
 13 41  1  0
 14 42  1  0
 14 43  1  0
 14 44  1  0
 15 45  1  0
 15 46  1  0
 15 47  1  0
M  CHG  2   1   1   4   1
M  END
$$$$
=
     RDKit          3D

 36 38  0  0  0  0  0  0  0  0999 V2000
   29.2290   29.6010   17.8240 F   0  0  0  0  0  0  0  0  0  0  0  0
   29.0210   28.9380   16.6810 C   0  0  0  0  0  0  0  0  0  0  0  0
   28.7690   29.6470   15.5160 C   0  0  0  0  0  0  0  0  0  0  0  0
   28.5530   28.9400   14.3440 C   0  0  0  0  0  0  0  0  0  0  0  0
   28.3200   29.6090   13.2070 F   0  0  0  0  0  0  0  0  0  0  0  0
   28.5800   27.5410   14.3400 C   0  0  0  0  0  0  0  0  0  0  0  0
   28.8470   26.8060   15.5140 C   0  0  0  0  0  0  0  0  0  0  0  0
   29.0580   27.5410   16.6910 C   0  0  0  0  0  0  0  0  0  0  0  0
   28.8280   25.2920   15.5180 C   0  0  2  0  0  0  0  0  0  0  0  0
   29.6250   24.4820   16.5120 C   0  0  0  0  0  0  0  0  0  0  0  0
   30.0760   24.5460   15.0880 C   0  0  1  0  0  0  0  0  0  0  0  0
   29.8640   23.3860   14.2190 N   0  0  0  0  0  4  0  0  0  0  0  0
   28.4300   26.8220   13.1820 O   0  0  0  0  0  0  0  0  0  0  0  0
   27.0730   26.7540   12.7270 C   0  0  0  0  0  0  0  0  0  0  0  0
   26.9630   25.4050   12.0580 C   0  0  0  0  0  0  0  0  0  0  0  0
   25.7380   24.7200   12.0310 C   0  0  0  0  0  0  0  0  0  0  0  0
   25.6530   23.4470   11.4650 C   0  0  0  0  0  0  0  0  0  0  0  0
   26.7900   22.8430   10.9300 C   0  0  0  0  0  0  0  0  0  0  0  0
   28.0120   23.5120   10.9550 C   0  0  0  0  0  0  0  0  0  0  0  0
   28.1010   24.7860   11.5200 C   0  0  0  0  0  0  0  0  0  0  0  0
   28.7412   30.7466   15.5222 H   0  0  0  0  0  0  0  0  0  0  0  0
   29.2552   27.0102   17.6341 H   0  0  0  0  0  0  0  0  0  0  0  0
   27.7670   25.3143   15.2284 H   0  0  0  0  0  0  0  0  0  0  0  0
   30.2059   24.9920   17.2946 H   0  0  0  0  0  0  0  0  0  0  0  0
   29.3895   23.6683   17.2137 H   0  0  0  0  0  0  0  0  0  0  0  0
   31.0301   24.8036   14.6049 H   0  0  0  0  0  0  0  0  0  0  0  0
   29.7107   22.5474   14.7971 H   0  0  0  0  0  0  0  0  0  0  0  0
   29.0388   23.5487   13.6244 H   0  0  0  0  0  0  0  0  0  0  0  0
   30.6934   23.2463   13.6244 H   0  0  0  0  0  0  0  0  0  0  0  0
   26.3752   26.8253   13.5744 H   0  0  0  0  0  0  0  0  0  0  0  0
   26.8195   27.5795   12.0456 H   0  0  0  0  0  0  0  0  0  0  0  0
   24.8397   25.1893   12.4585 H   0  0  0  0  0  0  0  0  0  0  0  0
   24.6879   22.9197   11.4410 H   0  0  0  0  0  0  0  0  0  0  0  0
   26.7223   21.8380   10.4880 H   0  0  0  0  0  0  0  0  0  0  0  0
   28.9077   23.0361   10.5292 H   0  0  0  0  0  0  0  0  0  0  0  0
   29.0694   25.3073   11.5433 H   0  0  0  0  0  0  0  0  0  0  0  0
  2  1  1  0
  3  2  2  0
  4  3  1  0
  5  4  1  0
  6  4  2  0
  7  6  1  0
  8  7  2  0
  8  2  1  0
  9  7  1  0
 10  9  1  0
 11  9  1  0
 11 10  1  0
 12 11  1  0
 13  6  1  0
 14 13  1  0
 15 14  1  0
 16 15  2  0
 17 16  1  0
 18 17  2  0
 19 18  1  0
 20 15  1  0
 20 19  2  0
  3 21  1  0
  8 22  1  0
  9 23  1  6
 10 24  1  0
 10 25  1  0
 11 26  1  1
 12 27  1  0
 12 28  1  0
 12 29  1  0
 14 30  1  0
 14 31  1  0
 16 32  1  0
 17 33  1  0
 18 34  1  0
 19 35  1  0
 20 36  1  0
M  CHG  1  12   1
M  END
$$$$
=
     RDKit          3D

 37 38  0  0  0  0  0  0  0  0999 V2000
   18.1330   15.4140    4.0580 N   0  0  0  0  0  0  0  0  0  0  0  0
   16.8470   15.7130    4.4760 C   0  0  0  0  0  0  0  0  0  0  0  0
   16.4940   16.6430    5.1870 O   0  0  0  0  0  0  0  0  0  0  0  0
   22.9490   18.3870    5.0400 C   0  0  0  0  0  0  0  0  0  0  0  0
   21.7040   17.5980    4.7620 C   0  0  0  0  0  0  0  0  0  0  0  0
   20.8790   17.9310    3.6890 C   0  0  0  0  0  0  0  0  0  0  0  0
   19.7020   17.2160    3.4480 C   0  0  0  0  0  0  0  0  0  0  0  0
   19.3150   16.1620    4.2810 C   0  0  0  0  0  0  0  0  0  0  0  0
   20.1370   15.8240    5.3790 C   0  0  0  0  0  0  0  0  0  0  0  0
   21.3200   16.5540    5.6070 C   0  0  0  0  0  0  0  0  0  0  0  0
   19.7960   14.7080    6.3290 C   0  0  0  0  0  0  0  0  0  0  0  0
   15.8110   14.7430    4.0210 C   0  0  0  0  0  0  0  0  0  0  0  0
   16.1370   13.6330    3.2390 C   0  0  0  0  0  0  0  0  0  0  0  0
   15.1320   12.7510    2.8380 C   0  0  0  0  0  0  0  0  0  0  0  0
   13.7870   12.9830    3.1650 C   0  0  0  0  0  0  0  0  0  0  0  0
   13.4650   14.0750    3.9910 C   0  0  0  0  0  0  0  0  0  0  0  0
   14.4790   14.9660    4.3870 C   0  0  0  0  0  0  0  0  0  0  0  0
   12.0550   14.3280    4.4500 C   0  0  0  0  0  0  0  0  0  0  0  0
   12.8360   12.0060    2.8370 N   0  0  0  0  0  0  0  0  0  0  0  0
   18.2432   14.5426    3.5201 H   0  0  0  0  0  0  0  0  0  0  0  0
   23.0910   18.4770    6.1271 H   0  0  0  0  0  0  0  0  0  0  0  0
   23.8153   17.8727    4.5984 H   0  0  0  0  0  0  0  0  0  0  0  0
   22.8538   19.3900    4.5984 H   0  0  0  0  0  0  0  0  0  0  0  0
   21.1564   18.7637    3.0260 H   0  0  0  0  0  0  0  0  0  0  0  0
   19.0703   17.4871    2.5892 H   0  0  0  0  0  0  0  0  0  0  0  0
   21.9544   16.2967    6.4680 H   0  0  0  0  0  0  0  0  0  0  0  0
   19.9042   15.0622    7.3648 H   0  0  0  0  0  0  0  0  0  0  0  0
   18.7583   14.3854    6.1584 H   0  0  0  0  0  0  0  0  0  0  0  0
   20.4762   13.8605    6.1584 H   0  0  0  0  0  0  0  0  0  0  0  0
   17.1805   13.4545    2.9404 H   0  0  0  0  0  0  0  0  0  0  0  0
   15.3992   11.8574    2.2548 H   0  0  0  0  0  0  0  0  0  0  0  0
   14.2218   15.8483    4.9914 H   0  0  0  0  0  0  0  0  0  0  0  0
   12.0228   14.3338    5.5495 H   0  0  0  0  0  0  0  0  0  0  0  0
   11.7142   15.3016    4.0681 H   0  0  0  0  0  0  0  0  0  0  0  0
   11.3969   13.5336    4.0681 H   0  0  0  0  0  0  0  0  0  0  0  0
   11.8434   12.1556    3.0677 H   0  0  0  0  0  0  0  0  0  0  0  0
   13.1301   11.1388    2.3654 H   0  0  0  0  0  0  0  0  0  0  0  0
  2  1  1  0
  3  2  2  0
  5  4  1  0
  6  5  2  0
  7  6  1  0
  8  1  1  0
  8  7  2  0
  9  8  1  0
 10  9  2  0
 10  5  1  0
 11  9  1  0
 12  2  1  0
 13 12  2  0
 14 13  1  0
 15 14  2  0
 16 15  1  0
 17 16  2  0
 17 12  1  0
 18 16  1  0
 19 15  1  0
  1 20  1  0
  4 21  1  0
  4 22  1  0
  4 23  1  0
  6 24  1  0
  7 25  1  0
 10 26  1  0
 11 27  1  0
 11 28  1  0
 11 29  1  0
 13 30  1  0
 14 31  1  0
 17 32  1  0
 18 33  1  0
 18 34  1  0
 18 35  1  0
 19 36  1  0
 19 37  1  0
M  END
$$$$
=
     RDKit          3D

 35 36  0  0  0  0  0  0  0  0999 V2000
   17.3520   15.0080    3.6470 N   0  0  0  0  0  0  0  0  0  0  0  0
   18.0800   15.8610    4.4410 C   0  0  0  0  0  0  0  0  0  0  0  0
   17.6980   16.4660    5.4340 O   0  0  0  0  0  0  0  0  0  0  0  0
   19.3840   15.9790    3.9850 N   0  0  0  0  0  0  0  0  0  0  0  0
   20.2990   16.8710    4.6790 C   0  0  0  0  0  0  0  0  0  0  0  0
   20.7230   18.0570    3.7960 C   0  0  0  0  0  0  0  0  0  0  0  0
   22.0540   18.6660    4.2140 C   0  0  0  0  0  0  0  0  0  0  0  0
   22.2630   18.4670    5.6740 N   0  0  0  0  0  4  0  0  0  0  0  0
   22.3710   17.0350    6.0960 C   0  0  0  0  0  0  0  0  0  0  0  0
   21.5170   16.1270    5.2140 C   0  0  0  0  0  0  0  0  0  0  0  0
   13.2580   13.9890    3.8590 C   0  0  0  0  0  0  0  0  0  0  0  0
   14.1970   13.1090    3.3170 C   0  0  0  0  0  0  0  0  0  0  0  0
   15.5480   13.4720    3.2600 C   0  0  0  0  0  0  0  0  0  0  0  0
   15.9770   14.7140    3.7490 C   0  0  0  0  0  0  0  0  0  0  0  0
   15.0300   15.5910    4.2830 C   0  0  0  0  0  0  0  0  0  0  0  0
   13.6780   15.2310    4.3410 C   0  0  0  0  0  0  0  0  0  0  0  0
   10.7520   13.3280    3.9630 N   0  0  0  0  0  0  0  0  0  0  0  0
   11.8730   13.6220    3.9190 C   0  0  0  0  0  0  0  0  0  0  0  0
   17.8679   14.5306    2.8941 H   0  0  0  0  0  0  0  0  0  0  0  0
   19.7006   15.4418    3.1652 H   0  0  0  0  0  0  0  0  0  0  0  0
   19.7505   17.2779    5.5413 H   0  0  0  0  0  0  0  0  0  0  0  0
   20.8091   17.7067    2.7568 H   0  0  0  0  0  0  0  0  0  0  0  0
   19.9560   18.8380    3.9048 H   0  0  0  0  0  0  0  0  0  0  0  0
   22.8690   18.1788    3.6587 H   0  0  0  0  0  0  0  0  0  0  0  0
   22.0463   19.7433    3.9917 H   0  0  0  0  0  0  0  0  0  0  0  0
   23.1331   18.9482    5.9430 H   0  0  0  0  0  0  0  0  0  0  0  0
   21.4298   18.8489    6.1439 H   0  0  0  0  0  0  0  0  0  0  0  0
   23.4221   16.7189    6.0229 H   0  0  0  0  0  0  0  0  0  0  0  0
   22.0087   16.9515    7.1312 H   0  0  0  0  0  0  0  0  0  0  0  0
   21.1793   15.2642    5.8069 H   0  0  0  0  0  0  0  0  0  0  0  0
   22.1264   15.7945    4.3607 H   0  0  0  0  0  0  0  0  0  0  0  0
   13.8748   12.1293    2.9343 H   0  0  0  0  0  0  0  0  0  0  0  0
   16.2808   12.7752    2.8269 H   0  0  0  0  0  0  0  0  0  0  0  0
   15.3492   16.5733    4.6614 H   0  0  0  0  0  0  0  0  0  0  0  0
   12.9433   15.9294    4.7681 H   0  0  0  0  0  0  0  0  0  0  0  0
  2  1  1  0
  3  2  2  0
  4  2  1  0
  5  4  1  0
  6  5  1  0
  7  6  1  0
  8  7  1  0
  9  8  1  0
 10  5  1  0
 10  9  1  0
 12 11  2  0
 13 12  1  0
 14 13  2  0
 14  1  1  0
 15 14  1  0
 16 15  2  0
 16 11  1  0
 18 17  3  0
 18 11  1  0
  1 19  1  0
  4 20  1  0
  5 21  1  0
  6 22  1  0
  6 23  1  0
  7 24  1  0
  7 25  1  0
  8 26  1  0
  8 27  1  0
  9 28  1  0
  9 29  1  0
 10 30  1  0
 10 31  1  0
 12 32  1  0
 13 33  1  0
 15 34  1  0
 16 35  1  0
M  CHG  1   8   1
M  END
$$$$
=
     RDKit          3D

 29 30  0  0  0  0  0  0  0  0999 V2000
   19.7470   17.4500    3.6040 C   0  0  1  0  0  0  0  0  0  0  0  0
   18.3870   17.4390    4.1180 O   0  0  0  0  0  0  0  0  0  0  0  0
   18.2060   16.2610    4.9180 C   0  0  2  0  0  0  0  0  0  0  0  0
   19.3640   15.3100    4.5720 C   0  0  1  0  0  0  0  0  0  0  0  0
   20.4800   16.2980    4.2850 C   0  0  2  0  0  0  0  0  0  0  0  0
   16.8940   15.6880    4.6740 N   0  0  0  0  0  0  0  0  0  0  0  0
   16.5760   15.0330    3.5340 C   0  0  0  0  0  0  0  0  0  0  0  0
   15.4720   14.4000    3.3630 N   0  0  0  0  0  0  0  0  0  0  0  0
   14.5730   14.4540    4.3740 C   0  0  0  0  0  0  0  0  0  0  0  0
   14.8300   14.9640    5.5270 N   0  0  0  0  0  0  0  0  0  0  0  0
   16.0610   15.5030    5.7490 C   0  0  0  0  0  0  0  0  0  0  0  0
   16.4450   15.7640    6.8890 O   0  0  0  0  0  0  0  0  0  0  0  0
   13.3550   13.9120    4.1380 N   0  0  0  0  0  0  0  0  0  0  0  0
   21.0480   16.7360    5.5270 O   0  0  0  0  0  0  0  0  0  0  0  0
   19.7600   14.4250    5.6200 O   0  0  0  0  0  0  0  0  0  0  0  0
   19.7060   17.2740    2.0800 C   0  0  0  0  0  0  0  0  0  0  0  0
   20.7710   17.9960    1.4710 O   0  0  0  0  0  0  0  0  0  0  0  0
   20.2669   18.3967    3.8125 H   0  0  0  0  0  0  0  0  0  0  0  0
   18.2336   16.4791    5.9958 H   0  0  0  0  0  0  0  0  0  0  0  0
   19.0894   14.6232    3.7578 H   0  0  0  0  0  0  0  0  0  0  0  0
   21.2996   15.8885    3.6763 H   0  0  0  0  0  0  0  0  0  0  0  0
   17.3028   15.0432    2.7084 H   0  0  0  0  0  0  0  0  0  0  0  0
   12.6338   13.9262    4.8732 H   0  0  0  0  0  0  0  0  0  0  0  0
   13.1496   13.4854    3.2233 H   0  0  0  0  0  0  0  0  0  0  0  0
   20.5386   16.3432    6.2796 H   0  0  0  0  0  0  0  0  0  0  0  0
   19.5717   14.8458    6.4961 H   0  0  0  0  0  0  0  0  0  0  0  0
   19.8047   16.2062    1.8351 H   0  0  0  0  0  0  0  0  0  0  0  0
   18.7485   17.6604    1.7006 H   0  0  0  0  0  0  0  0  0  0  0  0
   21.3484   18.3874    2.1735 H   0  0  0  0  0  0  0  0  0  0  0  0
  2  1  1  0
  3  2  1  0
  4  3  1  0
  5  4  1  0
  5  1  1  0
  6  3  1  0
  7  6  1  0
  8  7  2  0
  9  8  1  0
 10  9  2  0
 11 10  1  0
 11  6  1  0
 12 11  2  0
 13  9  1  0
 14  5  1  0
 15  4  1  0
 16  1  1  0
 17 16  1  0
  1 18  1  6
  3 19  1  1
  4 20  1  6
  5 21  1  6
  7 22  1  0
 13 23  1  0
 13 24  1  0
 14 25  1  0
 15 26  1  0
 16 27  1  0
 16 28  1  0
 17 29  1  0
M  END
$$$$
=
     RDKit          3D

 36 38  0  0  0  0  0  0  0  0999 V2000
   14.7550   13.4010    3.4210 C   0  0  0  0  0  0  0  0  0  0  0  0
   15.5190   12.4030    2.8170 C   0  0  0  0  0  0  0  0  0  0  0  0
   16.9160   12.4990    2.7460 C   0  0  0  0  0  0  0  0  0  0  0  0
   17.5210   13.6290    3.3080 C   0  0  0  0  0  0  0  0  0  0  0  0
   16.7860   14.6430    3.9230 C   0  0  0  0  0  0  0  0  0  0  0  0
   15.3850   14.5240    3.9730 C   0  0  0  0  0  0  0  0  0  0  0  0
   17.7160   15.6240    4.3630 C   0  0  0  0  0  0  0  0  0  0  0  0
   17.4540   16.9480    5.0080 C   0  0  0  0  0  0  0  0  0  0  0  0
   18.7470   17.5620    5.5800 C   0  0  0  0  0  0  0  0  0  0  0  0
   19.9680   17.3480    4.6590 C   0  0  0  0  0  0  0  0  0  0  0  0
   20.2510   15.8570    4.3730 C   0  0  2  0  0  0  0  0  0  0  0  0
   18.9820   15.1680    4.0460 C   0  0  0  0  0  0  0  0  0  0  0  0
   18.8510   13.9870    3.3620 N   0  0  0  0  0  0  0  0  0  0  0  0
   20.8180   15.2380    5.5930 N   0  0  0  0  0  4  0  0  0  0  0  0
   13.3920   13.4070    3.5410 O   0  0  0  0  0  0  0  0  0  0  0  0
   11.3120   14.2790    4.3090 C   0  0  0  0  0  0  0  0  0  0  0  0
   12.8210   14.3210    4.4760 C   0  0  0  0  0  0  0  0  0  0  0  0
   15.0161   11.5237    2.3881 H   0  0  0  0  0  0  0  0  0  0  0  0
   17.5162   11.7127    2.2648 H   0  0  0  0  0  0  0  0  0  0  0  0
   14.7833   15.3140    4.4463 H   0  0  0  0  0  0  0  0  0  0  0  0
   17.0335   17.6342    4.2581 H   0  0  0  0  0  0  0  0  0  0  0  0
   16.7478   16.7948    5.8373 H   0  0  0  0  0  0  0  0  0  0  0  0
   18.5933   18.6428    5.7149 H   0  0  0  0  0  0  0  0  0  0  0  0
   18.9593   17.0584    6.5346 H   0  0  0  0  0  0  0  0  0  0  0  0
   19.7806   17.8593    3.7033 H   0  0  0  0  0  0  0  0  0  0  0  0
   20.8479   17.7576    5.1768 H   0  0  0  0  0  0  0  0  0  0  0  0
   20.9534   15.7693    3.5310 H   0  0  0  0  0  0  0  0  0  0  0  0
   19.6277   13.4495    2.9513 H   0  0  0  0  0  0  0  0  0  0  0  0
   20.4091   15.6844    6.4263 H   0  0  0  0  0  0  0  0  0  0  0  0
   20.5995   14.2315    5.6006 H   0  0  0  0  0  0  0  0  0  0  0  0
   21.8398   15.3676    5.6006 H   0  0  0  0  0  0  0  0  0  0  0  0
   10.8337   14.2657    5.2995 H   0  0  0  0  0  0  0  0  0  0  0  0
   10.9797   15.1682    3.7533 H   0  0  0  0  0  0  0  0  0  0  0  0
   11.0297   13.3726    3.7533 H   0  0  0  0  0  0  0  0  0  0  0  0
   13.1907   15.3379    4.2778 H   0  0  0  0  0  0  0  0  0  0  0  0
   13.1004   14.0428    5.5029 H   0  0  0  0  0  0  0  0  0  0  0  0
  2  1  2  0
  3  2  1  0
  4  3  2  0
  5  4  1  0
  6  1  1  0
  6  5  2  0
  7  5  1  0
  8  7  1  0
  9  8  1  0
 10  9  1  0
 11 10  1  0
 12 11  1  0
 12  7  2  0
 13 12  1  0
 13  4  1  0
 14 11  1  0
 15  1  1  0
 17 16  1  0
 17 15  1  0
  2 18  1  0
  3 19  1  0
  6 20  1  0
  8 21  1  0
  8 22  1  0
  9 23  1  0
  9 24  1  0
 10 25  1  0
 10 26  1  0
 11 27  1  6
 13 28  1  0
 14 29  1  0
 14 30  1  0
 14 31  1  0
 16 32  1  0
 16 33  1  0
 16 34  1  0
 17 35  1  0
 17 36  1  0
M  CHG  1  14   1
M  END
$$$$
=
     RDKit          3D

 34 36  0  0  0  0  0  0  0  0999 V2000
   17.2790   14.7540    4.1040 C   0  0  0  0  0  0  0  0  0  0  0  0
   16.8450   15.5760    5.0690 N   0  0  0  0  0  0  0  0  0  0  0  0
   15.5210   15.3690    5.0220 N   0  0  0  0  0  0  0  0  0  0  0  0
   15.1770   14.4210    4.0940 C   0  0  0  0  0  0  0  0  0  0  0  0
   16.2870   14.0110    3.5090 N   0  0  0  0  0  0  0  0  0  0  0  0
   13.8160   13.9600    3.8110 C   0  0  0  0  0  0  0  0  0  0  0  0
   13.5440   12.8810    2.9520 C   0  0  0  0  0  0  0  0  0  0  0  0
   12.2270   12.4780    2.7120 C   0  0  0  0  0  0  0  0  0  0  0  0
   11.1760   13.1490    3.3250 C   0  0  0  0  0  0  0  0  0  0  0  0
   11.4160   14.2180    4.1760 C   0  0  0  0  0  0  0  0  0  0  0  0
   12.7330   14.6210    4.4180 C   0  0  0  0  0  0  0  0  0  0  0  0
    9.9170   12.7590    3.0910 F   0  0  0  0  0  0  0  0  0  0  0  0
   18.7180   14.6200    3.7220 C   0  0  0  0  0  0  0  0  0  0  0  0
   19.2610   15.7790    3.0730 O   0  0  0  0  0  0  0  0  0  0  0  0
   22.2790   17.7280    5.2150 C   0  0  0  0  0  0  0  0  0  0  0  0
   21.6280   18.4170    4.1910 C   0  0  0  0  0  0  0  0  0  0  0  0
   20.6210   17.8040    3.4330 C   0  0  0  0  0  0  0  0  0  0  0  0
   20.2250   16.5000    3.7200 C   0  0  0  0  0  0  0  0  0  0  0  0
   20.8270   15.8330    4.7880 C   0  0  0  0  0  0  0  0  0  0  0  0
   21.8320   16.4470    5.5410 C   0  0  0  0  0  0  0  0  0  0  0  0
   23.1980   18.3870    6.0380 N   0  0  0  0  0  0  0  0  0  0  0  0
   14.8408   15.8654    5.6151 H   0  0  0  0  0  0  0  0  0  0  0  0
   14.3744   12.3493    2.4645 H   0  0  0  0  0  0  0  0  0  0  0  0
   12.0233   11.6317    2.0395 H   0  0  0  0  0  0  0  0  0  0  0  0
   10.5777   14.7440    4.6562 H   0  0  0  0  0  0  0  0  0  0  0  0
   12.9249   15.4678    5.0933 H   0  0  0  0  0  0  0  0  0  0  0  0
   19.3017   14.4296    4.6347 H   0  0  0  0  0  0  0  0  0  0  0  0
   18.7792   13.7931    2.9992 H   0  0  0  0  0  0  0  0  0  0  0  0
   21.9097   19.4582    3.9752 H   0  0  0  0  0  0  0  0  0  0  0  0
   20.1423   18.3541    2.6095 H   0  0  0  0  0  0  0  0  0  0  0  0
   20.5066   14.8114    5.0403 H   0  0  0  0  0  0  0  0  0  0  0  0
   22.2739   15.9162    6.3972 H   0  0  0  0  0  0  0  0  0  0  0  0
   23.6752   17.8727    6.7921 H   0  0  0  0  0  0  0  0  0  0  0  0
   23.3976   19.3866    5.8900 H   0  0  0  0  0  0  0  0  0  0  0  0
  2  1  2  0
  3  2  1  0
  4  3  1  0
  5  4  2  0
  5  1  1  0
  6  4  1  0
  7  6  2  0
  8  7  1  0
  9  8  2  0
 10  9  1  0
 11 10  2  0
 11  6  1  0
 12  9  1  0
 13  1  1  0
 14 13  1  0
 16 15  2  0
 17 16  1  0
 18 14  1  0
 18 17  2  0
 19 18  1  0
 20 19  2  0
 20 15  1  0
 21 15  1  0
  3 22  1  0
  7 23  1  0
  8 24  1  0
 10 25  1  0
 11 26  1  0
 13 27  1  0
 13 28  1  0
 16 29  1  0
 17 30  1  0
 19 31  1  0
 20 32  1  0
 21 33  1  0
 21 34  1  0
M  END
$$$$
=
     RDKit          3D

 38 41  0  0  0  0  0  0  0  0999 V2000
   26.4990   26.5380   14.3960 C   0  0  1  0  0  0  0  0  0  0  0  0
   27.0500   27.8770   14.0530 N   0  0  0  0  0  0  0  0  0  0  0  0
   28.1430   28.1990   14.8820 C   0  0  0  0  0  0  0  0  0  0  0  0
   28.3380   27.4130   16.0180 C   0  0  0  0  0  0  0  0  0  0  0  0
   27.1990   26.0720   16.0690 S   0  0  0  0  0  0  0  0  0  0  0  0
   29.3400   27.6910   16.9360 C   0  0  0  0  0  0  0  0  0  0  0  0
   30.1590   28.7970   16.7140 C   0  0  0  0  0  0  0  0  0  0  0  0
   29.9610   29.6080   15.5900 C   0  0  0  0  0  0  0  0  0  0  0  0
   28.9440   29.3150   14.6760 C   0  0  0  0  0  0  0  0  0  0  0  0
   22.1350   26.7030   14.8540 C   0  0  0  0  0  0  0  0  0  0  0  0
   22.9650   26.7100   15.9750 C   0  0  0  0  0  0  0  0  0  0  0  0
   24.3570   26.6420   15.8420 C   0  0  0  0  0  0  0  0  0  0  0  0
   24.9650   26.6180   14.5750 C   0  0  0  0  0  0  0  0  0  0  0  0
   24.1170   26.6580   13.4490 C   0  0  0  0  0  0  0  0  0  0  0  0
   22.7260   26.7260   13.5910 C   0  0  0  0  0  0  0  0  0  0  0  0
   20.7550   26.8910   14.9930 N   0  0  0  0  0  0  0  0  0  0  0  0
   26.9260   25.5880   13.2470 C   0  0  0  0  0  0  0  0  0  0  0  0
   27.6180   26.0250   12.1010 C   0  0  0  0  0  0  0  0  0  0  0  0
   27.9430   25.1410   11.0660 C   0  0  0  0  0  0  0  0  0  0  0  0
   27.5710   23.8020   11.1430 C   0  0  0  0  0  0  0  0  0  0  0  0
   26.8620   23.3460   12.2490 C   0  0  0  0  0  0  0  0  0  0  0  0
   26.5350   24.2290   13.2820 C   0  0  0  0  0  0  0  0  0  0  0  0
   26.6817   28.4869   13.3091 H   0  0  0  0  0  0  0  0  0  0  0  0
   29.4852   27.0526   17.8200 H   0  0  0  0  0  0  0  0  0  0  0  0
   30.9643   29.0336   17.4250 H   0  0  0  0  0  0  0  0  0  0  0  0
   30.6095   30.4811   15.4249 H   0  0  0  0  0  0  0  0  0  0  0  0
   28.7798   29.9623   13.8019 H   0  0  0  0  0  0  0  0  0  0  0  0
   22.5191   26.7699   16.9788 H   0  0  0  0  0  0  0  0  0  0  0  0
   24.9854   26.6068   16.7442 H   0  0  0  0  0  0  0  0  0  0  0  0
   24.5565   26.6354   12.4409 H   0  0  0  0  0  0  0  0  0  0  0  0
   22.0914   26.7985   12.6955 H   0  0  0  0  0  0  0  0  0  0  0  0
   20.1480   26.8847   14.1609 H   0  0  0  0  0  0  0  0  0  0  0  0
   20.3465   27.0357   15.9274 H   0  0  0  0  0  0  0  0  0  0  0  0
   27.9089   27.0826   12.0177 H   0  0  0  0  0  0  0  0  0  0  0  0
   28.4951   25.5061   10.1874 H   0  0  0  0  0  0  0  0  0  0  0  0
   27.8367   23.1074   10.3325 H   0  0  0  0  0  0  0  0  0  0  0  0
   26.5585   22.2905   12.3109 H   0  0  0  0  0  0  0  0  0  0  0  0
   25.9596   23.8581   14.1431 H   0  0  0  0  0  0  0  0  0  0  0  0
  2  1  1  0
  3  2  1  0
  4  3  2  0
  5  1  1  0
  5  4  1  0
  6  4  1  0
  7  6  2  0
  8  7  1  0
  9  8  2  0
  9  3  1  0
 11 10  2  0
 12 11  1  0
 13 12  2  0
  1 13  1  1
 14 13  1  0
 15 14  2  0
 15 10  1  0
 16 10  1  0
 17  1  1  0
 18 17  2  0
 19 18  1  0
 20 19  2  0
 21 20  1  0
 22 21  2  0
 22 17  1  0
  2 23  1  0
  6 24  1  0
  7 25  1  0
  8 26  1  0
  9 27  1  0
 11 28  1  0
 12 29  1  0
 14 30  1  0
 15 31  1  0
 16 32  1  0
 16 33  1  0
 18 34  1  0
 19 35  1  0
 20 36  1  0
 21 37  1  0
 22 38  1  0
M  END
$$$$
=
     RDKit          3D

 41 43  0  0  0  0  0  0  0  0999 V2000
   15.9770   15.3600    5.2360 C   0  0  0  0  0  0  0  0  0  0  0  0
   16.4830   15.2630    4.0050 N   0  0  0  0  0  0  0  0  0  0  0  0
   15.4870   14.6360    3.3500 N   0  0  0  0  0  0  0  0  0  0  0  0
   14.3880   14.4520    4.1530 C   0  0  0  0  0  0  0  0  0  0  0  0
   14.6740   14.9290    5.3560 N   0  0  0  0  0  0  0  0  0  0  0  0
   13.1320   13.8260    3.7330 C   0  0  0  0  0  0  0  0  0  0  0  0
   13.1670   12.7230    2.8600 C   0  0  0  0  0  0  0  0  0  0  0  0
   11.9920   12.0830    2.4390 C   0  0  0  0  0  0  0  0  0  0  0  0
   10.7560   12.5370    2.8870 C   0  0  0  0  0  0  0  0  0  0  0  0
   10.7140   13.6330    3.7450 C   0  0  0  0  0  0  0  0  0  0  0  0
   11.8840   14.2800    4.1780 C   0  0  0  0  0  0  0  0  0  0  0  0
    9.4450   14.1390    4.2320 N   0  0  0  0  0  4  0  0  0  0  0  0
    8.7020   14.6640    3.3890 O   0  0  0  0  0  0  0  0  0  0  0  0
    9.1610   13.9290    5.4170 O   0  0  0  0  0  1  0  0  0  0  0  0
    9.6160   11.8960    2.5140 O   0  0  0  0  0  0  0  0  0  0  0  0
   16.6740   16.0310    6.3880 C   0  0  2  0  0  0  0  0  0  0  0  0
   20.8040   16.6990    5.2290 C   0  0  0  0  0  0  0  0  0  0  0  0
   19.8610   17.7170    5.1220 C   0  0  0  0  0  0  0  0  0  0  0  0
   18.5280   17.4880    5.4880 C   0  0  0  0  0  0  0  0  0  0  0  0
   18.1140   16.2330    5.9700 C   0  0  0  0  0  0  0  0  0  0  0  0
   19.0760   15.2120    6.0690 C   0  0  0  0  0  0  0  0  0  0  0  0
   20.4030   15.4490    5.7030 C   0  0  0  0  0  0  0  0  0  0  0  0
   22.7880   18.0140    5.2090 C   0  0  0  0  0  0  0  0  0  0  0  0
   22.1290   16.7890    4.9120 O   0  0  0  0  0  0  0  0  0  0  0  0
   16.5710   15.2070    7.6260 N   0  0  0  0  0  4  0  0  0  0  0  0
   15.5427   14.3318    2.3675 H   0  0  0  0  0  0  0  0  0  0  0  0
   14.1385   12.3540    2.4993 H   0  0  0  0  0  0  0  0  0  0  0  0
   12.0480   11.2231    1.7553 H   0  0  0  0  0  0  0  0  0  0  0  0
   11.8200   15.1385    4.8628 H   0  0  0  0  0  0  0  0  0  0  0  0
    8.7376   12.2214    2.8344 H   0  0  0  0  0  0  0  0  0  0  0  0
   16.2055   16.9978    6.6244 H   0  0  0  0  0  0  0  0  0  0  0  0
   20.1637   18.7063    4.7482 H   0  0  0  0  0  0  0  0  0  0  0  0
   17.7939   18.3022    5.3970 H   0  0  0  0  0  0  0  0  0  0  0  0
   18.7810   14.2185    6.4377 H   0  0  0  0  0  0  0  0  0  0  0  0
   21.1423   14.6391    5.7896 H   0  0  0  0  0  0  0  0  0  0  0  0
   22.8553   18.1391    6.2998 H   0  0  0  0  0  0  0  0  0  0  0  0
   23.8001   17.9996    4.7784 H   0  0  0  0  0  0  0  0  0  0  0  0
   22.2182   18.8506    4.7784 H   0  0  0  0  0  0  0  0  0  0  0  0
   16.6473   15.8175    8.4521 H   0  0  0  0  0  0  0  0  0  0  0  0
   15.6628   14.7214    7.6407 H   0  0  0  0  0  0  0  0  0  0  0  0
   17.3318   14.5128    7.6407 H   0  0  0  0  0  0  0  0  0  0  0  0
  2  1  2  0
  3  2  1  0
  4  3  1  0
  5  4  2  0
  5  1  1  0
  6  4  1  0
  7  6  2  0
  8  7  1  0
  9  8  2  0
 10  9  1  0
 11 10  2  0
 11  6  1  0
 12 10  1  0
 13 12  2  0
 14 12  1  0
 15  9  1  0
 16  1  1  0
 18 17  2  0
 19 18  1  0
 20 16  1  0
 20 19  2  0
 21 20  1  0
 22 21  2  0
 22 17  1  0
 24 17  1  0
 24 23  1  0
 25 16  1  0
  3 26  1  0
  7 27  1  0
  8 28  1  0
 11 29  1  0
 15 30  1  0
 16 31  1  1
 18 32  1  0
 19 33  1  0
 21 34  1  0
 22 35  1  0
 23 36  1  0
 23 37  1  0
 23 38  1  0
 25 39  1  0
 25 40  1  0
 25 41  1  0
M  CHG  3  12   1  14  -1  25   1
M  END
$$$$
=
     RDKit          3D

 33 34  0  0  0  0  0  0  0  0999 V2000
   17.8090   15.8800    4.2370 N   0  0  0  0  0  4  0  0  0  0  0  0
   19.5720   14.3860    6.3900 Cl  0  0  0  0  0  0  0  0  0  0  0  0
   20.1360   15.6570    5.2850 C   0  0  2  0  0  0  0  0  0  0  0  0
   21.1760   16.5590    5.9280 C   0  0  0  0  0  0  0  0  0  0  0  0
   21.0930   18.0630    4.9610 S   0  0  0  0  0  6  0  0  0  0  0  0
   20.8220   19.1660    5.8530 O   0  0  0  0  0  0  0  0  0  0  0  0
   22.1620   18.0600    3.9920 O   0  0  0  0  0  0  0  0  0  0  0  0
   19.5760   17.7130    4.0850 C   0  0  0  0  0  0  0  0  0  0  0  0
   18.9720   16.5870    4.8950 C   0  0  1  0  0  0  0  0  0  0  0  0
   16.4170   15.9610    4.7960 C   0  0  0  0  0  0  0  0  0  0  0  0
   15.5000   14.8820    4.3080 C   0  0  0  0  0  0  0  0  0  0  0  0
   14.1670   14.8280    4.7380 C   0  0  0  0  0  0  0  0  0  0  0  0
   13.2970   13.8590    4.2300 C   0  0  0  0  0  0  0  0  0  0  0  0
   13.7460   12.8930    3.3290 C   0  0  0  0  0  0  0  0  0  0  0  0
   15.0660   12.9600    2.8840 C   0  0  0  0  0  0  0  0  0  0  0  0
   15.9450   13.9260    3.3850 C   0  0  0  0  0  0  0  0  0  0  0  0
   12.8400   12.0280    2.7160 N   0  0  0  0  0  0  0  0  0  0  0  0
   17.7562   16.2433    3.2746 H   0  0  0  0  0  0  0  0  0  0  0  0
   18.0457   14.8880    4.3811 H   0  0  0  0  0  0  0  0  0  0  0  0
   20.5615   15.1298    4.4184 H   0  0  0  0  0  0  0  0  0  0  0  0
   20.9266   16.7559    6.9811 H   0  0  0  0  0  0  0  0  0  0  0  0
   22.1812   16.1122    5.9343 H   0  0  0  0  0  0  0  0  0  0  0  0
   18.9140   18.5914    4.0728 H   0  0  0  0  0  0  0  0  0  0  0  0
   19.7342   17.4524    3.0281 H   0  0  0  0  0  0  0  0  0  0  0  0
   18.4886   16.9971    5.7940 H   0  0  0  0  0  0  0  0  0  0  0  0
   16.4800   15.8917    5.8920 H   0  0  0  0  0  0  0  0  0  0  0  0
   15.9927   16.9170    4.4553 H   0  0  0  0  0  0  0  0  0  0  0  0
   13.8029   15.5533    5.4805 H   0  0  0  0  0  0  0  0  0  0  0  0
   12.2431   13.8581    4.5452 H   0  0  0  0  0  0  0  0  0  0  0  0
   15.4208   12.2434    2.1287 H   0  0  0  0  0  0  0  0  0  0  0  0
   16.9933   13.9353    3.0520 H   0  0  0  0  0  0  0  0  0  0  0  0
   13.1762   11.3164    2.0515 H   0  0  0  0  0  0  0  0  0  0  0  0
   11.8346   12.1007    2.9277 H   0  0  0  0  0  0  0  0  0  0  0  0
  3  2  1  0
  4  3  1  0
  5  4  1  0
  6  5  2  0
  7  5  2  0
  8  5  1  0
  9  3  1  0
  9  1  1  0
  9  8  1  0
 10  1  1  0
 11 10  1  0
 12 11  2  0
 13 12  1  0
 14 13  2  0
 15 14  1  0
 16 15  2  0
 16 11  1  0
 17 14  1  0
  1 18  1  0
  1 19  1  0
  3 20  1  6
  4 21  1  0
  4 22  1  0
  8 23  1  0
  8 24  1  0
  9 25  1  1
 10 26  1  0
 10 27  1  0
 12 28  1  0
 13 29  1  0
 15 30  1  0
 16 31  1  0
 17 32  1  0
 17 33  1  0
M  CHG  1   1   1
M  END
$$$$
=
     RDKit          3D

 33 33  0  0  0  0  0  0  0  0999 V2000
   14.9000   14.2660    4.2990 C   0  0  0  0  0  0  0  0  0  0  0  0
   15.9150   14.2720    3.3340 C   0  0  0  0  0  0  0  0  0  0  0  0
   17.0790   15.0220    3.5290 C   0  0  0  0  0  0  0  0  0  0  0  0
   17.2800   15.7890    4.6900 C   0  0  0  0  0  0  0  0  0  0  0  0
   16.2600   15.7720    5.6520 C   0  0  0  0  0  0  0  0  0  0  0  0
   15.0930   15.0220    5.4640 C   0  0  0  0  0  0  0  0  0  0  0  0
   18.5740   16.6090    4.8630 C   0  0  0  0  0  0  0  0  0  0  0  0
   19.6660   15.7260    5.5030 C   0  0  0  0  0  0  0  0  0  0  0  0
   19.1480   17.1580    3.5370 C   0  0  0  0  0  0  0  0  0  0  0  0
   18.3000   17.8230    5.7780 C   0  0  0  0  0  0  0  0  0  0  0  0
   13.6500   13.4310    4.1480 C   0  0  2  0  0  0  0  0  0  0  0  0
   13.7480   12.6270    2.8630 N   0  0  0  0  0  4  0  0  0  0  0  0
   12.3060   14.2050    4.2140 C   0  0  0  0  0  0  0  0  0  0  0  0
   11.6350   13.7990    5.3220 F   0  0  0  0  0  0  0  0  0  0  0  0
   11.5270   13.8960    3.1540 F   0  0  0  0  0  0  0  0  0  0  0  0
   12.4670   15.5350    4.2790 F   0  0  0  0  0  0  0  0  0  0  0  0
   15.7954   13.6811    2.4139 H   0  0  0  0  0  0  0  0  0  0  0  0
   17.8585   15.0116    2.7530 H   0  0  0  0  0  0  0  0  0  0  0  0
   16.3793   16.3603    6.5737 H   0  0  0  0  0  0  0  0  0  0  0  0
   14.3155   15.0258    6.2421 H   0  0  0  0  0  0  0  0  0  0  0  0
   19.5910   15.7866    6.5988 H   0  0  0  0  0  0  0  0  0  0  0  0
   19.5279   14.6826    5.1832 H   0  0  0  0  0  0  0  0  0  0  0  0
   20.6574   16.0794    5.1832 H   0  0  0  0  0  0  0  0  0  0  0  0
   19.9271   17.9032    3.7554 H   0  0  0  0  0  0  0  0  0  0  0  0
   19.5835   16.3317    2.9560 H   0  0  0  0  0  0  0  0  0  0  0  0
   18.3419   17.6298    2.9560 H   0  0  0  0  0  0  0  0  0  0  0  0
   18.3702   17.5119    6.8308 H   0  0  0  0  0  0  0  0  0  0  0  0
   19.0434   18.6085    5.5774 H   0  0  0  0  0  0  0  0  0  0  0  0
   17.2912   18.2131    5.5774 H   0  0  0  0  0  0  0  0  0  0  0  0
   13.6172   12.7758    5.0310 H   0  0  0  0  0  0  0  0  0  0  0  0
   13.8696   11.6298    3.0904 H   0  0  0  0  0  0  0  0  0  0  0  0
   12.8856   12.7513    2.3136 H   0  0  0  0  0  0  0  0  0  0  0  0
   14.5553   12.9548    2.3136 H   0  0  0  0  0  0  0  0  0  0  0  0
  2  1  2  0
  3  2  1  0
  4  3  2  0
  5  4  1  0
  6  1  1  0
  6  5  2  0
  7  4  1  0
  8  7  1  0
  9  7  1  0
 10  7  1  0
 11  1  1  0
 12 11  1  0
 13 11  1  0
 14 13  1  0
 15 13  1  0
 16 13  1  0
  2 17  1  0
  3 18  1  0
  5 19  1  0
  6 20  1  0
  8 21  1  0
  8 22  1  0
  8 23  1  0
  9 24  1  0
  9 25  1  0
  9 26  1  0
 10 27  1  0
 10 28  1  0
 10 29  1  0
 11 30  1  1
 12 31  1  0
 12 32  1  0
 12 33  1  0
M  CHG  1  12   1
M  END
$$$$
=
     RDKit          3D

 39 40  0  0  0  0  0  0  0  0999 V2000
   17.6380   13.8710    3.3690 C   0  0  0  0  0  0  0  0  0  0  0  0
   18.9320   14.1140    3.4380 N   0  0  0  0  0  0  0  0  0  0  0  0
   19.0620   15.2840    4.1420 C   0  0  0  0  0  0  0  0  0  0  0  0
   17.8150   15.8130    4.4550 C   0  0  0  0  0  0  0  0  0  0  0  0
   16.9240   14.9400    3.8700 N   0  0  0  0  0  0  0  0  0  0  0  0
   17.6650   17.0100    5.1600 C   0  0  0  0  0  0  0  0  0  0  0  0
   18.8410   17.6690    5.5480 C   0  0  0  0  0  0  0  0  0  0  0  0
   20.1100   17.1440    5.2840 C   0  0  0  0  0  0  0  0  0  0  0  0
   20.2240   15.9670    4.5330 C   0  0  0  0  0  0  0  0  0  0  0  0
   21.2520   17.9020    5.5720 N   0  0  0  0  0  0  0  0  0  0  0  0
   17.0350   12.6280    2.8180 C   0  0  0  0  0  0  0  0  0  0  0  0
   18.0660   11.6320    2.7720 O   0  0  0  0  0  0  0  0  0  0  0  0
   15.5100   15.1900    3.6860 C   0  0  0  0  0  0  0  0  0  0  0  0
   14.6320   14.7510    4.8700 C   0  0  0  0  0  0  0  0  0  0  0  0
   13.1460   14.5090    4.5920 C   0  0  0  0  0  0  0  0  0  0  0  0
   12.8860   13.4550    3.5490 N   0  0  0  0  0  4  0  0  0  0  0  0
   13.4920   12.1220    3.8640 C   0  0  0  0  0  0  0  0  0  0  0  0
   11.4110   13.3350    3.2560 C   0  0  0  0  0  0  0  0  0  0  0  0
   16.6713   17.4165    5.3995 H   0  0  0  0  0  0  0  0  0  0  0  0
   18.7624   18.6301    6.0772 H   0  0  0  0  0  0  0  0  0  0  0  0
   21.2153   15.5816    4.2523 H   0  0  0  0  0  0  0  0  0  0  0  0
   22.1877   17.5174    5.3784 H   0  0  0  0  0  0  0  0  0  0  0  0
   21.1561   18.8440    5.9774 H   0  0  0  0  0  0  0  0  0  0  0  0
   16.2142   12.2891    3.4672 H   0  0  0  0  0  0  0  0  0  0  0  0
   16.6258   12.8086    1.8130 H   0  0  0  0  0  0  0  0  0  0  0  0
   18.3247   11.3820    3.6943 H   0  0  0  0  0  0  0  0  0  0  0  0
   15.3678   16.2700    3.5331 H   0  0  0  0  0  0  0  0  0  0  0  0
   15.1937   14.5911    2.8192 H   0  0  0  0  0  0  0  0  0  0  0  0
   15.0516   13.8129    5.2622 H   0  0  0  0  0  0  0  0  0  0  0  0
   14.6534   15.6015    5.5673 H   0  0  0  0  0  0  0  0  0  0  0  0
   12.6645   14.1949    5.5298 H   0  0  0  0  0  0  0  0  0  0  0  0
   12.7354   15.4524    4.2029 H   0  0  0  0  0  0  0  0  0  0  0  0
   13.3669   13.7786    2.6976 H   0  0  0  0  0  0  0  0  0  0  0  0
   13.5501   11.9942    4.9550 H   0  0  0  0  0  0  0  0  0  0  0  0
   12.8679   11.3247    3.4342 H   0  0  0  0  0  0  0  0  0  0  0  0
   14.5031   12.0681    3.4342 H   0  0  0  0  0  0  0  0  0  0  0  0
   10.8517   13.2895    4.2021 H   0  0  0  0  0  0  0  0  0  0  0  0
   11.0800   14.2092    2.6761 H   0  0  0  0  0  0  0  0  0  0  0  0
   11.2257   12.4188    2.6761 H   0  0  0  0  0  0  0  0  0  0  0  0
  2  1  2  0
  3  2  1  0
  4  3  2  0
  5  4  1  0
  5  1  1  0
  6  4  1  0
  7  6  2  0
  8  7  1  0
  9  3  1  0
  9  8  2  0
 10  8  1  0
 11  1  1  0
 12 11  1  0
 13  5  1  0
 14 13  1  0
 15 14  1  0
 16 15  1  0
 17 16  1  0
 18 16  1  0
  6 19  1  0
  7 20  1  0
  9 21  1  0
 10 22  1  0
 10 23  1  0
 11 24  1  0
 11 25  1  0
 12 26  1  0
 13 27  1  0
 13 28  1  0
 14 29  1  0
 14 30  1  0
 15 31  1  0
 15 32  1  0
 16 33  1  0
 17 34  1  0
 17 35  1  0
 17 36  1  0
 18 37  1  0
 18 38  1  0
 18 39  1  0
M  CHG  1  16   1
M  END
$$$$
=
     RDKit          3D

 46 47  0  0  0  0  0  0  0  0999 V2000
   18.4810   16.3690    5.0910 N   0  0  2  0  0  4  0  0  0  0  0  0
   18.8230   14.8760    4.9770 C   0  0  0  0  0  0  0  0  0  0  0  0
   18.1430   14.2220    3.7770 C   0  0  0  0  0  0  0  0  0  0  0  0
   16.7320   14.7610    3.5040 C   0  0  2  0  0  0  0  0  0  0  0  0
   16.1540   15.3630    4.7920 C   0  0  1  0  0  0  0  0  0  0  0  0
   16.9600   16.5980    5.2020 C   0  0  0  0  0  0  0  0  0  0  0  0
   14.6700   15.6850    4.6110 C   0  0  0  0  0  0  0  0  0  0  0  0
   13.8490   14.4340    4.2830 C   0  0  0  0  0  0  0  0  0  0  0  0
   14.6850   13.2620    3.7640 C   0  0  0  0  0  0  0  0  0  0  0  0
   15.8090   13.7210    2.8430 C   0  0  0  0  0  0  0  0  0  0  0  0
   19.1680   17.1840    3.9850 C   0  0  0  0  0  0  0  0  0  0  0  0
   20.1520   18.3030    4.4920 C   0  0  1  0  0  0  0  0  0  0  0  0
   19.7460   18.8110    5.8590 N   0  0  0  0  0  4  0  0  0  0  0  0
   22.6290   18.9550    4.4990 C   0  0  0  0  0  0  0  0  0  0  0  0
   21.6220   17.7980    4.5730 C   0  0  0  0  0  0  0  0  0  0  0  0
   21.9030   17.0000    5.8540 C   0  0  0  0  0  0  0  0  0  0  0  0
   18.8684   16.7277    5.9754 H   0  0  0  0  0  0  0  0  0  0  0  0
   19.9125   14.7687    4.8695 H   0  0  0  0  0  0  0  0  0  0  0  0
   18.4609   14.3747    5.8867 H   0  0  0  0  0  0  0  0  0  0  0  0
   18.7624   14.4006    2.8857 H   0  0  0  0  0  0  0  0  0  0  0  0
   18.0414   13.1510    4.0066 H   0  0  0  0  0  0  0  0  0  0  0  0
   16.8041   15.5662    2.7580 H   0  0  0  0  0  0  0  0  0  0  0  0
   16.2332   14.6262    5.6049 H   0  0  0  0  0  0  0  0  0  0  0  0
   16.6800   17.4363    4.5472 H   0  0  0  0  0  0  0  0  0  0  0  0
   16.7289   16.8156    6.2552 H   0  0  0  0  0  0  0  0  0  0  0  0
   14.2863   16.1280    5.5419 H   0  0  0  0  0  0  0  0  0  0  0  0
   14.5739   16.3859    3.7687 H   0  0  0  0  0  0  0  0  0  0  0  0
   13.3298   14.1109    5.1974 H   0  0  0  0  0  0  0  0  0  0  0  0
   13.1530   14.7111    3.4775 H   0  0  0  0  0  0  0  0  0  0  0  0
   15.1241   12.7324    4.6223 H   0  0  0  0  0  0  0  0  0  0  0  0
   14.0210   12.6035    3.1848 H   0  0  0  0  0  0  0  0  0  0  0  0
   16.4115   12.8454    2.5598 H   0  0  0  0  0  0  0  0  0  0  0  0
   15.3462   14.1974    1.9662 H   0  0  0  0  0  0  0  0  0  0  0  0
   19.7401   16.4877    3.3543 H   0  0  0  0  0  0  0  0  0  0  0  0
   18.3639   17.7055    3.4450 H   0  0  0  0  0  0  0  0  0  0  0  0
   20.0925   19.1176    3.7552 H   0  0  0  0  0  0  0  0  0  0  0  0
   20.2014   18.2412    6.5862 H   0  0  0  0  0  0  0  0  0  0  0  0
   20.0371   19.7938    5.9605 H   0  0  0  0  0  0  0  0  0  0  0  0
   18.7232   18.7437    5.9605 H   0  0  0  0  0  0  0  0  0  0  0  0
   22.9023   19.2690    5.5172 H   0  0  0  0  0  0  0  0  0  0  0  0
   23.5305   18.6228    3.9634 H   0  0  0  0  0  0  0  0  0  0  0  0
   22.1756   19.8021    3.9634 H   0  0  0  0  0  0  0  0  0  0  0  0
   21.7472   17.1367    3.7030 H   0  0  0  0  0  0  0  0  0  0  0  0
   21.6827   17.6257    6.7315 H   0  0  0  0  0  0  0  0  0  0  0  0
   21.2667   16.1030    5.8742 H   0  0  0  0  0  0  0  0  0  0  0  0
   22.9610   16.6996    5.8742 H   0  0  0  0  0  0  0  0  0  0  0  0
  2  1  1  0
  3  2  1  0
  4  3  1  0
  5  4  1  0
  6  5  1  0
  6  1  1  0
  7  5  1  0
  8  7  1  0
  9  8  1  0
 10  9  1  0
 10  4  1  0
 11  1  1  0
 12 11  1  0
 13 12  1  0
 15 12  1  0
 15 14  1  0
 16 15  1  0
  1 17  1  1
  2 18  1  0
  2 19  1  0
  3 20  1  0
  3 21  1  0
  4 22  1  6
  5 23  1  1
  6 24  1  0
  6 25  1  0
  7 26  1  0
  7 27  1  0
  8 28  1  0
  8 29  1  0
  9 30  1  0
  9 31  1  0
 10 32  1  0
 10 33  1  0
 11 34  1  0
 11 35  1  0
 12 36  1  6
 13 37  1  0
 13 38  1  0
 13 39  1  0
 14 40  1  0
 14 41  1  0
 14 42  1  0
 15 43  1  0
 16 44  1  0
 16 45  1  0
 16 46  1  0
M  CHG  2   1   1  13   1
M  END
$$$$
=
     RDKit          3D

 32 32  0  0  0  0  0  0  0  0999 V2000
   19.1140   15.1760    4.3580 C   0  0  0  0  0  0  0  0  0  0  0  0
   19.5730   14.5600    5.5340 C   0  0  0  0  0  0  0  0  0  0  0  0
   20.6240   15.1090    6.2770 C   0  0  0  0  0  0  0  0  0  0  0  0
   21.2410   16.2830    5.8560 C   0  0  0  0  0  0  0  0  0  0  0  0
   20.8020   16.9050    4.6850 C   0  0  0  0  0  0  0  0  0  0  0  0
   19.7480   16.3690    3.9410 C   0  0  0  0  0  0  0  0  0  0  0  0
   17.9640   14.6170    3.5280 C   0  0  2  0  0  0  0  0  0  0  0  0
   16.5680   14.7740    4.1370 C   0  0  0  0  0  0  0  0  0  0  0  0
   17.0570   12.3540    2.7680 C   0  0  0  0  0  0  0  0  0  0  0  0
   18.2070   13.1550    3.2460 N   0  0  0  0  0  4  0  0  0  0  0  0
   19.2850   16.9010    2.7590 O   0  0  0  0  0  0  0  0  0  0  0  0
   20.2410   17.6100    1.9650 C   0  0  0  0  0  0  0  0  0  0  0  0
   22.2770   16.9170    6.4800 O   0  0  0  0  0  0  0  0  0  0  0  0
   22.8850   18.0060    5.7940 C   0  0  0  0  0  0  0  0  0  0  0  0
   19.0977   13.6292    5.8770 H   0  0  0  0  0  0  0  0  0  0  0  0
   20.9636   14.6108    7.1970 H   0  0  0  0  0  0  0  0  0  0  0  0
   21.2925   17.8288    4.3442 H   0  0  0  0  0  0  0  0  0  0  0  0
   17.9595   15.2241    2.6107 H   0  0  0  0  0  0  0  0  0  0  0  0
   16.6436   14.7655    5.2344 H   0  0  0  0  0  0  0  0  0  0  0  0
   16.1291   15.7272    3.8071 H   0  0  0  0  0  0  0  0  0  0  0  0
   15.9284   13.9421    3.8071 H   0  0  0  0  0  0  0  0  0  0  0  0
   16.4975   11.9643    3.6312 H   0  0  0  0  0  0  0  0  0  0  0  0
   16.3963   12.9883    2.1589 H   0  0  0  0  0  0  0  0  0  0  0  0
   17.4229   11.5143    2.1589 H   0  0  0  0  0  0  0  0  0  0  0  0
   18.5429   12.7234    4.1188 H   0  0  0  0  0  0  0  0  0  0  0  0
   18.8784   13.1450    2.4650 H   0  0  0  0  0  0  0  0  0  0  0  0
   20.9483   18.1345    2.6243 H   0  0  0  0  0  0  0  0  0  0  0  0
   20.7899   16.8989    1.3301 H   0  0  0  0  0  0  0  0  0  0  0  0
   19.7198   18.3417    1.3301 H   0  0  0  0  0  0  0  0  0  0  0  0
   23.2853   18.7229    6.5260 H   0  0  0  0  0  0  0  0  0  0  0  0
   23.7040   17.6305    5.1629 H   0  0  0  0  0  0  0  0  0  0  0  0
   22.1356   18.5061    5.1629 H   0  0  0  0  0  0  0  0  0  0  0  0
  2  1  2  0
  3  2  1  0
  4  3  2  0
  5  4  1  0
  6  1  1  0
  6  5  2  0
  7  1  1  0
  8  7  1  0
 10  9  1  0
 10  7  1  0
 11  6  1  0
 12 11  1  0
 13  4  1  0
 14 13  1  0
  2 15  1  0
  3 16  1  0
  5 17  1  0
  7 18  1  6
  8 19  1  0
  8 20  1  0
  8 21  1  0
  9 22  1  0
  9 23  1  0
  9 24  1  0
 10 25  1  0
 10 26  1  0
 12 27  1  0
 12 28  1  0
 12 29  1  0
 14 30  1  0
 14 31  1  0
 14 32  1  0
M  CHG  1  10   1
M  END
$$$$
=
     RDKit          3D

 48 51  0  0  0  0  0  0  0  0999 V2000
   15.7760   14.4320    3.1160 C   0  0  2  0  0  0  0  0  0  0  0  0
   15.7520   13.1250    2.2970 C   0  0  0  0  0  0  0  0  0  0  0  0
   16.5990   12.0880    2.8790 N   0  0  0  0  0  0  0  0  0  0  0  0
   17.9000   12.3680    3.2600 C   0  0  0  0  0  0  0  0  0  0  0  0
   18.7230   11.4730    3.3830 O   0  0  0  0  0  0  0  0  0  0  0  0
   18.1370   13.7540    3.5540 C   0  0  0  0  0  0  0  0  0  0  0  0
   17.1800   14.7200    3.4290 N   0  0  0  0  0  0  0  0  0  0  0  0
   17.4930   15.8790    4.0280 N   0  0  0  0  0  0  0  0  0  0  0  0
   18.8000   15.7370    4.3090 C   0  0  0  0  0  0  0  0  0  0  0  0
   19.2470   14.4210    4.0290 C   0  0  0  0  0  0  0  0  0  0  0  0
   19.6550   16.9030    4.9240 C   0  0  0  0  0  0  0  0  0  0  0  0
   19.1460   18.1180    5.3320 C   0  0  0  0  0  0  0  0  0  0  0  0
   20.1630   18.9770    5.8500 C   0  0  0  0  0  0  0  0  0  0  0  0
   21.4050   18.3840    5.8180 C   0  0  0  0  0  0  0  0  0  0  0  0
   21.3430   16.8030    5.1660 S   0  0  0  0  0  0  0  0  0  0  0  0
   15.0420   14.3060    4.4300 N   0  0  0  0  0  4  0  0  0  0  0  0
   13.7410   15.0120    4.5400 C   0  0  0  0  0  0  0  0  0  0  0  0
   10.1850   13.8240    3.8420 C   0  0  0  0  0  0  0  0  0  0  0  0
   11.2750   14.5790    4.3010 C   0  0  0  0  0  0  0  0  0  0  0  0
   12.5930   14.2210    3.9900 C   0  0  0  0  0  0  0  0  0  0  0  0
   12.8070   13.0960    3.1880 C   0  0  0  0  0  0  0  0  0  0  0  0
   11.7240   12.3340    2.7320 C   0  0  0  0  0  0  0  0  0  0  0  0
   10.4060   12.6780    3.0620 C   0  0  0  0  0  0  0  0  0  0  0  0
    8.6190   14.0230    5.6330 C   0  0  0  0  0  0  0  0  0  0  0  0
    8.9880   14.3180    4.2890 O   0  0  0  0  0  0  0  0  0  0  0  0
    9.3210   11.9290    2.7010 O   0  0  0  0  0  0  0  0  0  0  0  0
    9.2970   11.3550    1.4000 C   0  0  0  0  0  0  0  0  0  0  0  0
   15.2875   15.2196    2.5235 H   0  0  0  0  0  0  0  0  0  0  0  0
   14.7175   12.7536    2.2546 H   0  0  0  0  0  0  0  0  0  0  0  0
   16.1405   13.3511    1.2930 H   0  0  0  0  0  0  0  0  0  0  0  0
   16.2242   11.1372    3.0076 H   0  0  0  0  0  0  0  0  0  0  0  0
   20.2619   14.0181    4.1621 H   0  0  0  0  0  0  0  0  0  0  0  0
   18.0830   18.3930    5.2663 H   0  0  0  0  0  0  0  0  0  0  0  0
   19.9759   19.9923    6.2296 H   0  0  0  0  0  0  0  0  0  0  0  0
   22.3276   18.8688    6.1697 H   0  0  0  0  0  0  0  0  0  0  0  0
   14.8679   13.3043    4.5949 H   0  0  0  0  0  0  0  0  0  0  0  0
   15.6535   14.7578    5.1248 H   0  0  0  0  0  0  0  0  0  0  0  0
   13.5450   15.2208    5.6021 H   0  0  0  0  0  0  0  0  0  0  0  0
   13.8177   15.9343    3.9455 H   0  0  0  0  0  0  0  0  0  0  0  0
   11.0906   15.4708    4.9180 H   0  0  0  0  0  0  0  0  0  0  0  0
   13.8324   12.8075    2.9134 H   0  0  0  0  0  0  0  0  0  0  0  0
   11.9110   11.4504    2.1041 H   0  0  0  0  0  0  0  0  0  0  0  0
    9.2882   14.5580    6.3228 H   0  0  0  0  0  0  0  0  0  0  0  0
    7.5811   14.3431    5.8070 H   0  0  0  0  0  0  0  0  0  0  0  0
    8.7028   12.9401    5.8070 H   0  0  0  0  0  0  0  0  0  0  0  0
    9.2512   10.2591    1.4835 H   0  0  0  0  0  0  0  0  0  0  0  0
    8.4133   11.7185    0.8551 H   0  0  0  0  0  0  0  0  0  0  0  0
   10.2080   11.6434    0.8551 H   0  0  0  0  0  0  0  0  0  0  0  0
  2  1  1  0
  3  2  1  0
  4  3  1  0
  5  4  2  0
  6  4  1  0
  7  1  1  0
  7  6  1  0
  8  7  1  0
  9  8  2  0
 10  9  1  0
 10  6  2  0
 11  9  1  0
 12 11  2  0
 13 12  1  0
 14 13  2  0
 15 11  1  0
 15 14  1  0
 16  1  1  0
 17 16  1  0
 19 18  2  0
 20 19  1  0
 20 17  1  0
 21 20  2  0
 22 21  1  0
 23 18  1  0
 23 22  2  0
 25 18  1  0
 25 24  1  0
 26 23  1  0
 27 26  1  0
  1 28  1  6
  2 29  1  0
  2 30  1  0
  3 31  1  0
 10 32  1  0
 12 33  1  0
 13 34  1  0
 14 35  1  0
 16 36  1  0
 16 37  1  0
 17 38  1  0
 17 39  1  0
 19 40  1  0
 21 41  1  0
 22 42  1  0
 24 43  1  0
 24 44  1  0
 24 45  1  0
 27 46  1  0
 27 47  1  0
 27 48  1  0
M  CHG  1  16   1
M  END
$$$$
=
     RDKit          3D

 30 30  0  0  0  0  0  0  0  0999 V2000
   12.0820   13.4660    3.4940 C   0  0  0  0  0  0  0  0  0  0  0  0
   13.5530   13.5080    3.8660 N   0  0  0  0  0  4  0  0  0  0  0  0
   14.3910   12.8280    2.8130 C   0  0  0  0  0  0  0  0  0  0  0  0
   15.8660   12.8480    3.2290 C   0  0  0  0  0  0  0  0  0  0  0  0
   16.3610   14.2830    3.4930 C   0  0  0  0  0  0  0  0  0  0  0  0
   15.4660   14.9280    4.5680 C   0  0  0  0  0  0  0  0  0  0  0  0
   13.9920   14.9220    4.1550 C   0  0  0  0  0  0  0  0  0  0  0  0
   17.8780   14.4200    3.8050 C   0  0  2  0  0  0  0  0  0  0  0  0
   18.4240   15.8150    3.5220 C   0  0  0  0  0  0  0  0  0  0  0  0
   18.7120   13.4460    3.0480 N   0  0  0  0  0  4  0  0  0  0  0  0
   11.4726   13.4486    4.4096 H   0  0  0  0  0  0  0  0  0  0  0  0
   11.8281   14.3573    2.9014 H   0  0  0  0  0  0  0  0  0  0  0  0
   11.8793   12.5617    2.9014 H   0  0  0  0  0  0  0  0  0  0  0  0
   13.6947   12.9767    4.7369 H   0  0  0  0  0  0  0  0  0  0  0  0
   14.0582   11.7858    2.6985 H   0  0  0  0  0  0  0  0  0  0  0  0
   14.2762   13.3613    1.8578 H   0  0  0  0  0  0  0  0  0  0  0  0
   15.9861   12.2543    4.1472 H   0  0  0  0  0  0  0  0  0  0  0  0
   16.4613   12.4243    2.4068 H   0  0  0  0  0  0  0  0  0  0  0  0
   16.2655   14.8355    2.5466 H   0  0  0  0  0  0  0  0  0  0  0  0
   15.5754   14.3660    5.5072 H   0  0  0  0  0  0  0  0  0  0  0  0
   15.7823   15.9738    4.6955 H   0  0  0  0  0  0  0  0  0  0  0  0
   13.3814   15.3352    4.9714 H   0  0  0  0  0  0  0  0  0  0  0  0
   13.8633   15.5362    3.2516 H   0  0  0  0  0  0  0  0  0  0  0  0
   17.9472   14.2118    4.8829 H   0  0  0  0  0  0  0  0  0  0  0  0
   18.6255   16.3298    4.4730 H   0  0  0  0  0  0  0  0  0  0  0  0
   19.3566   15.7335    2.9444 H   0  0  0  0  0  0  0  0  0  0  0  0
   17.6839   16.3882    2.9444 H   0  0  0  0  0  0  0  0  0  0  0  0
   19.2254   12.8464    3.7097 H   0  0  0  0  0  0  0  0  0  0  0  0
   18.1049   12.8619    2.4553 H   0  0  0  0  0  0  0  0  0  0  0  0
   19.3826   13.9559    2.4553 H   0  0  0  0  0  0  0  0  0  0  0  0
  2  1  1  0
  3  2  1  0
  4  3  1  0
  5  4  1  0
  6  5  1  0
  7  6  1  0
  7  2  1  0
  8  5  1  0
  9  8  1  0
 10  8  1  0
  1 11  1  0
  1 12  1  0
  1 13  1  0
  2 14  1  0
  3 15  1  0
  3 16  1  0
  4 17  1  0
  4 18  1  0
  5 19  1  0
  6 20  1  0
  6 21  1  0
  7 22  1  0
  7 23  1  0
  8 24  1  1
  9 25  1  0
  9 26  1  0
  9 27  1  0
 10 28  1  0
 10 29  1  0
 10 30  1  0
M  CHG  2   2   1  10   1
M  END
$$$$
=
     RDKit          3D

 39 40  0  0  0  0  0  0  0  0999 V2000
   25.4600   25.6460   12.8390 C   0  0  0  0  0  0  0  0  0  0  0  0
   25.2420   24.9470   11.8480 O   0  0  0  0  0  0  0  0  0  0  0  0
   26.7430   25.7140   13.3810 N   0  0  0  0  0  0  0  0  0  0  0  0
   27.4480   24.4240   13.4650 C   0  0  0  0  0  0  0  0  0  0  0  0
   27.9600   23.9090   12.1060 C   0  0  0  0  0  0  0  0  0  0  0  0
   27.8930   25.0040   11.0780 N   0  0  0  0  0  4  0  0  0  0  0  0
   28.4100   26.3200   11.6030 C   0  0  0  0  0  0  0  0  0  0  0  0
   27.5630   26.8180   12.8300 C   0  0  2  0  0  0  0  0  0  0  0  0
   28.4130   27.5360   13.8690 C   0  0  0  0  0  0  0  0  0  0  0  0
   28.2930   28.9140   14.1130 C   0  0  0  0  0  0  0  0  0  0  0  0
   29.0990   29.5510   15.0590 C   0  0  0  0  0  0  0  0  0  0  0  0
   30.0520   28.8260   15.7670 C   0  0  0  0  0  0  0  0  0  0  0  0
   30.2100   27.4660   15.5210 C   0  0  0  0  0  0  0  0  0  0  0  0
   29.4030   26.8270   14.5750 C   0  0  0  0  0  0  0  0  0  0  0  0
   24.4210   26.5250   13.4990 C   0  0  0  0  0  0  0  0  0  0  0  0
   24.5990   26.4940   15.0100 C   0  0  0  0  0  0  0  0  0  0  0  0
   25.8670   27.6930   16.6230 C   0  0  0  0  0  0  0  0  0  0  0  0
   24.9820   27.7770   15.5100 O   0  0  0  0  0  0  0  0  0  0  0  0
   28.3095   24.5422   14.1387 H   0  0  0  0  0  0  0  0  0  0  0  0
   26.7232   23.6848   13.8368 H   0  0  0  0  0  0  0  0  0  0  0  0
   29.0024   23.5745   12.2133 H   0  0  0  0  0  0  0  0  0  0  0  0
   27.3285   23.0699   11.7787 H   0  0  0  0  0  0  0  0  0  0  0  0
   28.4595   24.7277   10.2634 H   0  0  0  0  0  0  0  0  0  0  0  0
   26.9035   25.1350   10.8236 H   0  0  0  0  0  0  0  0  0  0  0  0
   29.4565   26.1940   11.9175 H   0  0  0  0  0  0  0  0  0  0  0  0
   28.3321   27.0685   10.8007 H   0  0  0  0  0  0  0  0  0  0  0  0
   26.8578   27.5838   12.4748 H   0  0  0  0  0  0  0  0  0  0  0  0
   27.5523   29.5008   13.5500 H   0  0  0  0  0  0  0  0  0  0  0  0
   28.9800   30.6287   15.2447 H   0  0  0  0  0  0  0  0  0  0  0  0
   30.6790   29.3268   16.5194 H   0  0  0  0  0  0  0  0  0  0  0  0
   30.9706   26.8928   16.0713 H   0  0  0  0  0  0  0  0  0  0  0  0
   29.5439   25.7537   14.3794 H   0  0  0  0  0  0  0  0  0  0  0  0
   24.5361   27.5582   13.1395 H   0  0  0  0  0  0  0  0  0  0  0  0
   23.4178   26.1520   13.2453 H   0  0  0  0  0  0  0  0  0  0  0  0
   23.6491   26.1953   15.4775 H   0  0  0  0  0  0  0  0  0  0  0  0
   25.3935   25.7731   15.2532 H   0  0  0  0  0  0  0  0  0  0  0  0
   25.2881   27.7479   17.5567 H   0  0  0  0  0  0  0  0  0  0  0  0
   26.4133   26.7390   16.5859 H   0  0  0  0  0  0  0  0  0  0  0  0
   26.5830   28.5272   16.5859 H   0  0  0  0  0  0  0  0  0  0  0  0
  2  1  2  0
  3  1  1  0
  4  3  1  0
  5  4  1  0
  6  5  1  0
  7  6  1  0
  8  3  1  0
  8  7  1  0
  9  8  1  0
 10  9  2  0
 11 10  1  0
 12 11  2  0
 13 12  1  0
 14 13  2  0
 14  9  1  0
 15  1  1  0
 16 15  1  0
 18 16  1  0
 18 17  1  0
  4 19  1  0
  4 20  1  0
  5 21  1  0
  5 22  1  0
  6 23  1  0
  6 24  1  0
  7 25  1  0
  7 26  1  0
  8 27  1  6
 10 28  1  0
 11 29  1  0
 12 30  1  0
 13 31  1  0
 14 32  1  0
 15 33  1  0
 15 34  1  0
 16 35  1  0
 16 36  1  0
 17 37  1  0
 17 38  1  0
 17 39  1  0
M  CHG  1   6   1
M  END
$$$$
=
     RDKit          3D

 36 38  0  0  0  0  0  0  0  0999 V2000
   18.1390   15.8260    4.8360 C   0  0  0  0  0  0  0  0  0  0  0  0
   18.5350   16.9730    4.3540 N   0  0  0  0  0  0  0  0  0  0  0  0
   19.9240   17.2030    4.8390 C   0  0  1  0  0  0  0  0  0  0  0  0
   20.1960   16.1220    5.7680 N   0  0  0  0  0  0  0  0  0  0  0  0
   19.1880   15.1920    5.7200 C   0  0  0  0  0  0  0  0  0  0  0  0
   19.1310   14.1070    6.2480 O   0  0  0  0  0  0  0  0  0  0  0  0
   21.4760   15.8210    6.3770 C   0  0  0  0  0  0  0  0  0  0  0  0
   20.8380   17.1740    3.5880 C   0  0  0  0  0  0  0  0  0  0  0  0
   21.6330   18.4670    3.3870 C   0  0  0  0  0  0  0  0  0  0  0  0
   22.3050   18.9210    4.6710 C   0  0  0  0  0  0  0  0  0  0  0  0
   21.2950   19.1670    5.7440 N   0  0  0  0  0  4  0  0  0  0  0  0
   19.9190   18.6060    5.5170 C   0  0  0  0  0  0  0  0  0  0  0  0
   15.3910   12.8860    2.1740 F   0  0  0  0  0  0  0  0  0  0  0  0
   15.4750   13.7640    3.1830 C   0  0  0  0  0  0  0  0  0  0  0  0
   14.3320   14.0960    3.8980 C   0  0  0  0  0  0  0  0  0  0  0  0
   14.4240   15.0100    4.9440 C   0  0  0  0  0  0  0  0  0  0  0  0
   15.6590   15.5860    5.2680 C   0  0  0  0  0  0  0  0  0  0  0  0
   16.8090   15.2470    4.5460 C   0  0  0  0  0  0  0  0  0  0  0  0
   16.7070   14.3270    3.4940 C   0  0  0  0  0  0  0  0  0  0  0  0
   21.3756   15.8446    7.4722 H   0  0  0  0  0  0  0  0  0  0  0  0
   21.8064   14.8207    6.0606 H   0  0  0  0  0  0  0  0  0  0  0  0
   22.2176   16.5692    6.0606 H   0  0  0  0  0  0  0  0  0  0  0  0
   21.5482   16.3407    3.6940 H   0  0  0  0  0  0  0  0  0  0  0  0
   20.1851   17.0540    2.7109 H   0  0  0  0  0  0  0  0  0  0  0  0
   22.4050   18.2951    2.6225 H   0  0  0  0  0  0  0  0  0  0  0  0
   20.9322   19.2538    3.0711 H   0  0  0  0  0  0  0  0  0  0  0  0
   23.0042   18.1410    5.0067 H   0  0  0  0  0  0  0  0  0  0  0  0
   22.8427   19.8600    4.4729 H   0  0  0  0  0  0  0  0  0  0  0  0
   21.6594   18.7568    6.6157 H   0  0  0  0  0  0  0  0  0  0  0  0
   21.1700   20.1891    5.7690 H   0  0  0  0  0  0  0  0  0  0  0  0
   19.3611   19.3019    4.8732 H   0  0  0  0  0  0  0  0  0  0  0  0
   19.4513   18.4861    6.5054 H   0  0  0  0  0  0  0  0  0  0  0  0
   13.3639   13.6416    3.6406 H   0  0  0  0  0  0  0  0  0  0  0  0
   13.5250   15.2804    5.5173 H   0  0  0  0  0  0  0  0  0  0  0  0
   15.7254   16.3088    6.0945 H   0  0  0  0  0  0  0  0  0  0  0  0
   17.6007   14.0508    2.9152 H   0  0  0  0  0  0  0  0  0  0  0  0
  2  1  2  0
  3  2  1  6
  4  3  1  0
  5  1  1  0
  5  4  1  0
  6  5  2  0
  7  4  1  0
  8  3  1  0
  9  8  1  0
 10  9  1  0
 11 10  1  0
 12  3  1  0
 12 11  1  0
 14 13  1  0
 15 14  2  0
 16 15  1  0
 17 16  2  0
 18 17  1  0
 18  1  1  0
 19 14  1  0
 19 18  2  0
  7 20  1  0
  7 21  1  0
  7 22  1  0
  8 23  1  0
  8 24  1  0
  9 25  1  0
  9 26  1  0
 10 27  1  0
 10 28  1  0
 11 29  1  0
 11 30  1  0
 12 31  1  0
 12 32  1  0
 15 33  1  0
 16 34  1  0
 17 35  1  0
 19 36  1  0
M  CHG  1  11   1
M  END
$$$$
=
     RDKit          3D

 23 24  0  0  0  0  0  0  0  0999 V2000
   13.9210   13.6860    4.1920 C   0  0  0  0  0  0  0  0  0  0  0  0
   13.8570   12.6960    3.1960 C   0  0  0  0  0  0  0  0  0  0  0  0
   15.0120   12.4180    2.4740 C   0  0  0  0  0  0  0  0  0  0  0  0
   16.1650   13.1910    2.6590 C   0  0  0  0  0  0  0  0  0  0  0  0
   16.2120   14.2340    3.5730 C   0  0  0  0  0  0  0  0  0  0  0  0
   15.0700   14.4960    4.3580 C   0  0  0  0  0  0  0  0  0  0  0  0
   15.1480   15.5650    5.2710 C   0  0  0  0  0  0  0  0  0  0  0  0
   16.3150   16.3100    5.3830 C   0  0  0  0  0  0  0  0  0  0  0  0
   17.3780   15.9630    4.5740 C   0  0  0  0  0  0  0  0  0  0  0  0
   17.3460   14.9490    3.6820 N   0  0  0  0  0  0  0  0  0  0  0  0
   12.7320   11.8620    3.0720 N   0  0  0  0  0  0  0  0  0  0  0  0
   11.8930   14.7610    4.2530 C   0  0  0  0  0  0  0  0  0  0  0  0
   12.8020   13.9160    4.9650 O   0  0  0  0  0  0  0  0  0  0  0  0
   15.0203   11.5866    1.7537 H   0  0  0  0  0  0  0  0  0  0  0  0
   17.0605   12.9645    2.0617 H   0  0  0  0  0  0  0  0  0  0  0  0
   14.2795   15.8117    5.8994 H   0  0  0  0  0  0  0  0  0  0  0  0
   16.3894   17.1477    6.0921 H   0  0  0  0  0  0  0  0  0  0  0  0
   18.3063   16.5467    4.6607 H   0  0  0  0  0  0  0  0  0  0  0  0
   12.7032   11.1421    2.3359 H   0  0  0  0  0  0  0  0  0  0  0  0
   11.9366   11.9709    3.7173 H   0  0  0  0  0  0  0  0  0  0  0  0
   11.2821   15.3289    4.9701 H   0  0  0  0  0  0  0  0  0  0  0  0
   12.4606   15.4597    3.6208 H   0  0  0  0  0  0  0  0  0  0  0  0
   11.2375   14.1440    3.6208 H   0  0  0  0  0  0  0  0  0  0  0  0
  2  1  2  0
  3  2  1  0
  4  3  2  0
  5  4  1  0
  6  5  2  0
  6  1  1  0
  7  6  1  0
  8  7  2  0
  9  8  1  0
 10  5  1  0
 10  9  2  0
 11  2  1  0
 13 12  1  0
 13  1  1  0
  3 14  1  0
  4 15  1  0
  7 16  1  0
  8 17  1  0
  9 18  1  0
 11 19  1  0
 11 20  1  0
 12 21  1  0
 12 22  1  0
 12 23  1  0
M  END
$$$$
=
     RDKit          3D

 33 33  0  0  0  0  0  0  0  0999 V2000
   15.3460   14.5050    3.5380 C   0  0  1  0  0  0  0  0  0  0  0  0
   14.8960   15.5430    4.5940 C   0  0  0  0  0  0  0  0  0  0  0  0
   15.8910   15.6690    5.7410 C   0  0  0  0  0  0  0  0  0  0  0  0
   17.2670   16.1390    5.2720 C   0  0  0  0  0  0  0  0  0  0  0  0
   17.5550   15.6410    3.8600 N   0  0  2  0  0  4  0  0  0  0  0  0
   16.8780   14.3230    3.5570 C   0  0  0  0  0  0  0  0  0  0  0  0
   19.0400   15.6820    3.4540 C   0  0  0  0  0  0  0  0  0  0  0  0
   19.3980   17.0700    2.9310 C   0  0  0  0  0  0  0  0  0  0  0  0
   19.9600   15.2390    4.5870 C   0  0  0  0  0  0  0  0  0  0  0  0
   14.5920   13.1700    3.7360 C   0  0  0  0  0  0  0  0  0  0  0  0
   14.7920   12.2280    2.6040 N   0  0  0  0  0  4  0  0  0  0  0  0
   15.0854   14.8827    2.5383 H   0  0  0  0  0  0  0  0  0  0  0  0
   14.7934   16.5231    4.1054 H   0  0  0  0  0  0  0  0  0  0  0  0
   13.9386   15.2019    5.0147 H   0  0  0  0  0  0  0  0  0  0  0  0
   15.4997   16.3944    6.4695 H   0  0  0  0  0  0  0  0  0  0  0  0
   16.0129   14.6719    6.1892 H   0  0  0  0  0  0  0  0  0  0  0  0
   17.2948   17.2386    5.2796 H   0  0  0  0  0  0  0  0  0  0  0  0
   18.0300   15.7329    5.9524 H   0  0  0  0  0  0  0  0  0  0  0  0
   17.1154   16.3362    3.2401 H   0  0  0  0  0  0  0  0  0  0  0  0
   17.1475   13.5893    4.3310 H   0  0  0  0  0  0  0  0  0  0  0  0
   17.2101   13.9664    2.5708 H   0  0  0  0  0  0  0  0  0  0  0  0
   19.1948   14.9567    2.6416 H   0  0  0  0  0  0  0  0  0  0  0  0
   19.5728   17.7477    3.7796 H   0  0  0  0  0  0  0  0  0  0  0  0
   20.3093   17.0071    2.3182 H   0  0  0  0  0  0  0  0  0  0  0  0
   18.5700   17.4558    2.3182 H   0  0  0  0  0  0  0  0  0  0  0  0
   19.4871   15.4667    5.5537 H   0  0  0  0  0  0  0  0  0  0  0  0
   20.1386   14.1562    4.5122 H   0  0  0  0  0  0  0  0  0  0  0  0
   20.9179   15.7746    4.5122 H   0  0  0  0  0  0  0  0  0  0  0  0
   14.9547   12.6939    4.6589 H   0  0  0  0  0  0  0  0  0  0  0  0
   13.5177   13.3992    3.7932 H   0  0  0  0  0  0  0  0  0  0  0  0
   14.9918   11.2869    2.9717 H   0  0  0  0  0  0  0  0  0  0  0  0
   13.9387   12.1975    2.0279 H   0  0  0  0  0  0  0  0  0  0  0  0
   15.5840   12.5468    2.0279 H   0  0  0  0  0  0  0  0  0  0  0  0
  2  1  1  0
  3  2  1  0
  4  3  1  0
  5  4  1  0
  6  1  1  0
  6  5  1  0
  7  5  1  0
  8  7  1  0
  9  7  1  0
 10  1  1  0
 11 10  1  0
  1 12  1  6
  2 13  1  0
  2 14  1  0
  3 15  1  0
  3 16  1  0
  4 17  1  0
  4 18  1  0
  5 19  1  6
  6 20  1  0
  6 21  1  0
  7 22  1  0
  8 23  1  0
  8 24  1  0
  8 25  1  0
  9 26  1  0
  9 27  1  0
  9 28  1  0
 10 29  1  0
 10 30  1  0
 11 31  1  0
 11 32  1  0
 11 33  1  0
M  CHG  2   5   1  11   1
M  END
$$$$
=
     RDKit          3D

 24 23  0  0  0  0  0  0  0  0999 V2000
   19.9410   15.5530    3.8450 N   0  0  0  0  0  4  0  0  0  0  0  0
   19.1590   14.6010    4.6760 C   0  0  0  0  0  0  0  0  0  0  0  0
   20.7620   15.1100    6.5370 C   0  0  0  0  0  0  0  0  0  0  0  0
   19.5460   14.7400    6.1110 C   0  0  0  0  0  0  0  0  0  0  0  0
   19.2250   16.7790    3.3860 C   0  0  0  0  0  0  0  0  0  0  0  0
   19.8150   18.0700    3.9690 C   0  0  0  0  0  0  0  0  0  0  0  0
   21.3430   17.9710    3.9680 C   0  0  0  0  0  0  0  0  0  0  0  0
   19.3190   18.3610    5.3860 C   0  0  0  0  0  0  0  0  0  0  0  0
   20.7559   15.8549    4.3979 H   0  0  0  0  0  0  0  0  0  0  0  0
   20.1753   15.0361    2.9855 H   0  0  0  0  0  0  0  0  0  0  0  0
   18.0861   14.8169    4.5654 H   0  0  0  0  0  0  0  0  0  0  0  0
   19.3687   13.5738    4.3430 H   0  0  0  0  0  0  0  0  0  0  0  0
   20.9667   15.1887    7.6149 H   0  0  0  0  0  0  0  0  0  0  0  0
   21.5551   15.3349    5.8087 H   0  0  0  0  0  0  0  0  0  0  0  0
   18.7808   14.5240    6.8711 H   0  0  0  0  0  0  0  0  0  0  0  0
   19.2849   16.8301    2.2888 H   0  0  0  0  0  0  0  0  0  0  0  0
   18.1851   16.7041    3.7367 H   0  0  0  0  0  0  0  0  0  0  0  0
   19.4787   18.9027    3.3337 H   0  0  0  0  0  0  0  0  0  0  0  0
   21.7096   17.9472    5.0049 H   0  0  0  0  0  0  0  0  0  0  0  0
   21.6505   17.0510    3.4492 H   0  0  0  0  0  0  0  0  0  0  0  0
   21.7666   18.8436    3.4492 H   0  0  0  0  0  0  0  0  0  0  0  0
   20.0289   17.9445    6.1157 H   0  0  0  0  0  0  0  0  0  0  0  0
   19.2401   19.4486    5.5308 H   0  0  0  0  0  0  0  0  0  0  0  0
   18.3312   17.8993    5.5308 H   0  0  0  0  0  0  0  0  0  0  0  0
  2  1  1  0
  4  2  1  0
  4  3  2  3
  5  1  1  0
  6  5  1  0
  7  6  1  0
  8  6  1  0
  1  9  1  0
  1 10  1  0
  2 11  1  0
  2 12  1  0
  3 13  1  0
  3 14  1  0
  4 15  1  0
  5 16  1  0
  5 17  1  0
  6 18  1  0
  7 19  1  0
  7 20  1  0
  7 21  1  0
  8 22  1  0
  8 23  1  0
  8 24  1  0
M  CHG  1   1   1
M  END
$$$$
=
     RDKit          3D

 25 26  0  0  0  0  0  0  0  0999 V2000
   18.5410   16.3990    5.7500 N   0  0  1  0  0  4  0  0  0  0  0  0
   18.7190   15.0060    5.1340 C   0  0  0  0  0  0  0  0  0  0  0  0
   19.9380   15.2190    4.1890 C   0  0  2  0  0  0  0  0  0  0  0  0
   20.7760   16.2150    4.9850 C   0  0  0  0  0  0  0  0  0  0  0  0
   19.6560   17.2550    5.0770 C   0  0  1  0  0  0  0  0  0  0  0  0
   19.3520   17.4880    3.5730 C   0  0  0  0  0  0  0  0  0  0  0  0
   19.5080   16.0820    2.9930 N   0  0  0  0  0  4  0  0  0  0  0  0
   17.1010   16.9530    5.7830 C   0  0  0  0  0  0  0  0  0  0  0  0
   15.5730   15.3760    6.5730 F   0  0  0  0  0  0  0  0  0  0  0  0
   16.0880   15.8640    5.4150 C   0  0  0  0  0  0  0  0  0  0  0  0
   15.0570   16.4770    4.7700 F   0  0  0  0  0  0  0  0  0  0  0  0
   18.6688   16.3992    6.7720 H   0  0  0  0  0  0  0  0  0  0  0  0
   18.9390   14.2536    5.9057 H   0  0  0  0  0  0  0  0  0  0  0  0
   17.8213   14.6320    4.6200 H   0  0  0  0  0  0  0  0  0  0  0  0
   20.3921   14.2661    3.8794 H   0  0  0  0  0  0  0  0  0  0  0  0
   21.0896   15.8293    5.9663 H   0  0  0  0  0  0  0  0  0  0  0  0
   21.7434   16.5300    4.5668 H   0  0  0  0  0  0  0  0  0  0  0  0
   19.8148   18.2072    5.6044 H   0  0  0  0  0  0  0  0  0  0  0  0
   18.3306   17.8693    3.4265 H   0  0  0  0  0  0  0  0  0  0  0  0
   20.0048   18.2366    3.1004 H   0  0  0  0  0  0  0  0  0  0  0  0
   20.2285   16.0695    2.2571 H   0  0  0  0  0  0  0  0  0  0  0  0
   18.6408   15.7403    2.5548 H   0  0  0  0  0  0  0  0  0  0  0  0
   16.8805   17.3229    6.7952 H   0  0  0  0  0  0  0  0  0  0  0  0
   17.0215   17.7693    5.0500 H   0  0  0  0  0  0  0  0  0  0  0  0
   16.5551   15.0759    4.8061 H   0  0  0  0  0  0  0  0  0  0  0  0
  2  1  1  0
  3  2  1  0
  4  3  1  0
  5  4  1  0
  5  1  1  0
  6  5  1  0
  7  3  1  0
  7  6  1  0
  8  1  1  0
 10  9  1  0
 10  8  1  0
 11 10  1  0
  1 12  1  1
  2 13  1  0
  2 14  1  0
  3 15  1  6
  4 16  1  0
  4 17  1  0
  5 18  1  1
  6 19  1  0
  6 20  1  0
  7 21  1  0
  7 22  1  0
  8 23  1  0
  8 24  1  0
 10 25  1  0
M  CHG  2   1   1   7   1
M  END
$$$$
=
     RDKit          3D

 42 43  0  0  0  0  0  0  0  0999 V2000
   17.7960   15.3830    6.7100 C   0  0  0  0  0  0  0  0  0  0  0  0
   18.8620   14.6660    5.8780 C   0  0  0  0  0  0  0  0  0  0  0  0
   20.5280   15.0060    6.5240 S   0  0  0  0  0  0  0  0  0  0  0  0
   23.7420   18.7490    5.1340 C   0  0  0  0  0  0  0  0  0  0  0  0
   22.5010   17.9630    4.8320 C   0  0  0  0  0  0  0  0  0  0  0  0
   21.7590   18.2450    3.7020 C   0  0  0  0  0  0  0  0  0  0  0  0
   20.6300   17.4790    3.4940 C   0  0  0  0  0  0  0  0  0  0  0  0
   19.7640   17.7180    2.2930 C   0  0  0  0  0  0  0  0  0  0  0  0
   20.2580   16.5010    4.3430 N   0  0  0  0  0  0  0  0  0  0  0  0
   21.0430   16.2940    5.4090 C   0  0  0  0  0  0  0  0  0  0  0  0
   22.1540   16.9900    5.7000 N   0  0  0  0  0  0  0  0  0  0  0  0
   17.1320   16.5370    5.9650 C   0  0  0  0  0  0  0  0  0  0  0  0
   15.8370   16.0610    5.3960 N   0  0  0  0  0  4  0  0  0  0  0  0
   15.9560   15.4000    4.0640 C   0  0  0  0  0  0  0  0  0  0  0  0
   14.8070   14.4610    3.8420 C   0  0  0  0  0  0  0  0  0  0  0  0
   14.9970   13.2580    3.1430 C   0  0  0  0  0  0  0  0  0  0  0  0
   13.9170   12.4080    2.8970 C   0  0  0  0  0  0  0  0  0  0  0  0
   12.6420   12.7540    3.3370 C   0  0  0  0  0  0  0  0  0  0  0  0
   12.4420   13.9470    4.0280 C   0  0  0  0  0  0  0  0  0  0  0  0
   13.5170   14.8000    4.2790 C   0  0  0  0  0  0  0  0  0  0  0  0
   17.0208   14.6542    6.9890 H   0  0  0  0  0  0  0  0  0  0  0  0
   18.2984   15.8074    7.5917 H   0  0  0  0  0  0  0  0  0  0  0  0
   18.6768   13.5822    5.9124 H   0  0  0  0  0  0  0  0  0  0  0  0
   18.8051   15.0332    4.8427 H   0  0  0  0  0  0  0  0  0  0  0  0
   23.8690   18.8294    6.2237 H   0  0  0  0  0  0  0  0  0  0  0  0
   24.6142   18.2383    4.6999 H   0  0  0  0  0  0  0  0  0  0  0  0
   23.6531   19.7558    4.6999 H   0  0  0  0  0  0  0  0  0  0  0  0
   22.0533   19.0410    3.0021 H   0  0  0  0  0  0  0  0  0  0  0  0
   18.7518   17.9974    2.6206 H   0  0  0  0  0  0  0  0  0  0  0  0
   20.1915   18.5317    1.6888 H   0  0  0  0  0  0  0  0  0  0  0  0
   19.7136   16.8002    1.6888 H   0  0  0  0  0  0  0  0  0  0  0  0
   16.9466   17.3683    6.6611 H   0  0  0  0  0  0  0  0  0  0  0  0
   17.7896   16.8867    5.1555 H   0  0  0  0  0  0  0  0  0  0  0  0
   15.4241   15.3857    6.0552 H   0  0  0  0  0  0  0  0  0  0  0  0
   15.2510   16.8968    5.2585 H   0  0  0  0  0  0  0  0  0  0  0  0
   15.9538   16.1681    3.2766 H   0  0  0  0  0  0  0  0  0  0  0  0
   16.8954   14.8286    4.0317 H   0  0  0  0  0  0  0  0  0  0  0  0
   16.0013   12.9841    2.7876 H   0  0  0  0  0  0  0  0  0  0  0  0
   14.0735   11.4638    2.3549 H   0  0  0  0  0  0  0  0  0  0  0  0
   11.7919   12.0847    3.1388 H   0  0  0  0  0  0  0  0  0  0  0  0
   11.4342   14.2170    4.3765 H   0  0  0  0  0  0  0  0  0  0  0  0
   13.3529   15.7425    4.8219 H   0  0  0  0  0  0  0  0  0  0  0  0
  2  1  1  0
  3  2  1  0
  5  4  1  0
  6  5  2  0
  7  6  1  0
  8  7  1  0
  9  7  2  0
 10  3  1  0
 10  9  1  0
 11 10  2  0
 11  5  1  0
 12  1  1  0
 13 12  1  0
 14 13  1  0
 15 14  1  0
 16 15  2  0
 17 16  1  0
 18 17  2  0
 19 18  1  0
 20 19  2  0
 20 15  1  0
  1 21  1  0
  1 22  1  0
  2 23  1  0
  2 24  1  0
  4 25  1  0
  4 26  1  0
  4 27  1  0
  6 28  1  0
  8 29  1  0
  8 30  1  0
  8 31  1  0
 12 32  1  0
 12 33  1  0
 13 34  1  0
 13 35  1  0
 14 36  1  0
 14 37  1  0
 16 38  1  0
 17 39  1  0
 18 40  1  0
 19 41  1  0
 20 42  1  0
M  CHG  1  13   1
M  END
$$$$
=
     RDKit          3D

 30 31  0  0  0  0  0  0  0  0999 V2000
   16.8280   15.5930    4.3170 N   0  0  0  0  0  0  0  0  0  0  0  0
   19.2580   15.4230    3.6700 C   0  0  1  0  0  0  0  0  0  0  0  0
   20.6270   15.2770    4.3250 C   0  0  0  0  0  0  0  0  0  0  0  0
   20.4210   15.7950    6.0220 S   0  0  0  0  0  6  0  0  0  0  0  0
   21.1810   17.0030    6.2620 O   0  0  0  0  0  0  0  0  0  0  0  0
   20.5690   14.6220    6.8640 O   0  0  0  0  0  0  0  0  0  0  0  0
   18.6890   16.1960    5.9530 C   0  0  0  0  0  0  0  0  0  0  0  0
   18.2000   15.3520    4.7910 C   0  0  1  0  0  0  0  0  0  0  0  0
   19.2050   16.6490    2.9500 O   0  0  0  0  0  0  0  0  0  0  0  0
   15.8790   14.6760    3.8890 C   0  0  0  0  0  0  0  0  0  0  0  0
   14.5600   14.8380    4.3460 C   0  0  0  0  0  0  0  0  0  0  0  0
   13.5410   13.9340    4.0120 C   0  0  0  0  0  0  0  0  0  0  0  0
   13.8210   12.7980    3.2610 C   0  0  0  0  0  0  0  0  0  0  0  0
   15.1170   12.6360    2.7820 C   0  0  0  0  0  0  0  0  0  0  0  0
   16.1340   13.5420    3.1190 C   0  0  0  0  0  0  0  0  0  0  0  0
   12.7910   11.9630    2.8240 N   0  0  0  0  0  0  0  0  0  0  0  0
   16.5310   16.5791    4.3007 H   0  0  0  0  0  0  0  0  0  0  0  0
   19.0627   14.6195    2.9445 H   0  0  0  0  0  0  0  0  0  0  0  0
   20.9606   14.2296    4.2832 H   0  0  0  0  0  0  0  0  0  0  0  0
   21.3864   15.8828    3.8090 H   0  0  0  0  0  0  0  0  0  0  0  0
   18.1796   15.9183    6.8875 H   0  0  0  0  0  0  0  0  0  0  0  0
   18.4935   17.2710    5.8257 H   0  0  0  0  0  0  0  0  0  0  0  0
   18.0987   14.3244    5.1702 H   0  0  0  0  0  0  0  0  0  0  0  0
   19.1723   17.4053    3.5880 H   0  0  0  0  0  0  0  0  0  0  0  0
   14.3194   15.7002    4.9853 H   0  0  0  0  0  0  0  0  0  0  0  0
   12.5110   14.1255    4.3473 H   0  0  0  0  0  0  0  0  0  0  0  0
   15.3485   11.7827    2.1276 H   0  0  0  0  0  0  0  0  0  0  0  0
   17.1587   13.3528    2.7667 H   0  0  0  0  0  0  0  0  0  0  0  0
   13.0091   11.1238    2.2681 H   0  0  0  0  0  0  0  0  0  0  0  0
   11.8130   12.1862    3.0575 H   0  0  0  0  0  0  0  0  0  0  0  0
  3  2  1  0
  4  3  1  0
  5  4  2  0
  6  4  2  0
  7  4  1  0
  8  2  1  0
  8  1  1  0
  8  7  1  0
  9  2  1  0
 10  1  1  0
 11 10  2  0
 12 11  1  0
 13 12  2  0
 14 13  1  0
 15 14  2  0
 15 10  1  0
 16 13  1  0
  1 17  1  0
  2 18  1  6
  3 19  1  0
  3 20  1  0
  7 21  1  0
  7 22  1  0
  8 23  1  1
  9 24  1  0
 11 25  1  0
 12 26  1  0
 14 27  1  0
 15 28  1  0
 16 29  1  0
 16 30  1  0
M  END
$$$$
=
     RDKit          3D

 37 38  0  0  0  0  0  0  0  0999 V2000
   19.7950   16.4110    5.1580 C   0  0  2  0  0  0  0  0  0  0  0  0
   19.0960   15.1860    4.6270 C   0  0  2  0  0  0  0  0  0  0  0  0
   19.8270   16.1280    3.6720 C   0  0  1  0  0  0  0  0  0  0  0  0
   17.5940   15.0610    4.5000 C   0  0  0  0  0  0  0  0  0  0  0  0
   16.7670   15.7640    5.3960 C   0  0  0  0  0  0  0  0  0  0  0  0
   15.3750   15.6490    5.3570 C   0  0  0  0  0  0  0  0  0  0  0  0
   14.7630   14.8240    4.4140 C   0  0  0  0  0  0  0  0  0  0  0  0
   15.5650   14.1510    3.4880 C   0  0  0  0  0  0  0  0  0  0  0  0
   16.9570   14.2710    3.5310 C   0  0  0  0  0  0  0  0  0  0  0  0
   13.2670   14.7390    4.3300 C   0  0  0  0  0  0  0  0  0  0  0  0
   21.4300   16.1270    5.9190 S   0  0  0  0  0  6  0  0  0  0  0  0
   22.1120   15.2820    4.9620 O   0  0  0  0  0  0  0  0  0  0  0  0
   21.1810   15.6730    7.2730 O   0  0  0  0  0  0  0  0  0  0  0  0
   22.5320   18.2890    4.6170 C   0  0  0  0  0  0  0  0  0  0  0  0
   22.2100   17.7250    5.9840 C   0  0  0  0  0  0  0  0  0  0  0  0
   19.1640   17.0930    2.7520 C   0  0  0  0  0  0  0  0  0  0  0  0
   20.0410   17.5610    1.6590 N   0  0  0  0  0  4  0  0  0  0  0  0
   19.4722   17.2345    5.8120 H   0  0  0  0  0  0  0  0  0  0  0  0
   19.1360   14.1234    4.9085 H   0  0  0  0  0  0  0  0  0  0  0  0
   20.5772   15.9545    2.8865 H   0  0  0  0  0  0  0  0  0  0  0  0
   17.2289   16.4216    6.1471 H   0  0  0  0  0  0  0  0  0  0  0  0
   14.7590   16.2120    6.0736 H   0  0  0  0  0  0  0  0  0  0  0  0
   15.0962   13.5208    2.7179 H   0  0  0  0  0  0  0  0  0  0  0  0
   17.5664   13.7344    2.7889 H   0  0  0  0  0  0  0  0  0  0  0  0
   12.8435   14.7149    5.3449 H   0  0  0  0  0  0  0  0  0  0  0  0
   12.8795   15.6166    3.7917 H   0  0  0  0  0  0  0  0  0  0  0  0
   12.9814   13.8232    3.7917 H   0  0  0  0  0  0  0  0  0  0  0  0
   23.0745   19.2391    4.7309 H   0  0  0  0  0  0  0  0  0  0  0  0
   23.1578   17.5736    4.0633 H   0  0  0  0  0  0  0  0  0  0  0  0
   21.5978   18.4642    4.0633 H   0  0  0  0  0  0  0  0  0  0  0  0
   21.5339   18.4230    6.4995 H   0  0  0  0  0  0  0  0  0  0  0  0
   23.1633   17.6012    6.5186 H   0  0  0  0  0  0  0  0  0  0  0  0
   18.2849   16.6032    2.3079 H   0  0  0  0  0  0  0  0  0  0  0  0
   18.8916   17.9755    3.3494 H   0  0  0  0  0  0  0  0  0  0  0  0
   20.8786   18.0080    2.0584 H   0  0  0  0  0  0  0  0  0  0  0  0
   20.3238   16.7587    1.0783 H   0  0  0  0  0  0  0  0  0  0  0  0
   19.5320   18.2426    1.0783 H   0  0  0  0  0  0  0  0  0  0  0  0
  2  1  1  0
  3  2  1  0
  3  1  1  0
  4  2  1  0
  5  4  2  0
  6  5  1  0
  7  6  2  0
  8  7  1  0
  9  8  2  0
  9  4  1  0
 10  7  1  0
 11  1  1  0
 12 11  2  0
 13 11  2  0
 15 11  1  0
 15 14  1  0
 16  3  1  0
 17 16  1  0
  1 18  1  6
  2 19  1  1
  3 20  1  6
  5 21  1  0
  6 22  1  0
  8 23  1  0
  9 24  1  0
 10 25  1  0
 10 26  1  0
 10 27  1  0
 14 28  1  0
 14 29  1  0
 14 30  1  0
 15 31  1  0
 15 32  1  0
 16 33  1  0
 16 34  1  0
 17 35  1  0
 17 36  1  0
 17 37  1  0
M  CHG  1  17   1
M  END
$$$$
=
     RDKit          3D

 31 31  0  0  0  0  0  0  0  0999 V2000
   18.5350   14.8890    4.1560 S   0  0  0  0  0  6  0  0  0  0  0  0
   19.1930   14.1300    3.1170 O   0  0  0  0  0  0  0  0  0  0  0  0
   18.9180   14.7700    5.5460 O   0  0  0  0  0  0  0  0  0  0  0  0
   16.7870   14.6080    4.0560 C   0  0  0  0  0  0  0  0  0  0  0  0
   15.9190   15.4320    4.7750 C   0  0  0  0  0  0  0  0  0  0  0  0
   14.5410   15.2120    4.6980 C   0  0  0  0  0  0  0  0  0  0  0  0
   14.0280   14.1470    3.9500 C   0  0  0  0  0  0  0  0  0  0  0  0
   14.9090   13.3610    3.2000 C   0  0  0  0  0  0  0  0  0  0  0  0
   16.2890   13.5690    3.2680 C   0  0  0  0  0  0  0  0  0  0  0  0
   12.6450   14.0100    3.7810 N   0  0  0  0  0  0  0  0  0  0  0  0
   18.6490   16.5120    3.7750 N   0  0  0  0  0  0  0  0  0  0  0  0
   19.9220   17.0950    3.3390 C   0  0  1  0  0  0  0  0  0  0  0  0
   19.7570   17.5350    1.8870 C   0  0  0  0  0  0  0  0  0  0  0  0
   19.3290   18.3830    5.4610 C   0  0  0  0  0  0  0  0  0  0  0  0
   20.2710   18.2620    4.2740 C   0  0  0  0  0  0  0  0  0  0  0  0
   16.3165   16.2476    5.3969 H   0  0  0  0  0  0  0  0  0  0  0  0
   13.8523   15.8836    5.2314 H   0  0  0  0  0  0  0  0  0  0  0  0
   14.5105   12.5693    2.5486 H   0  0  0  0  0  0  0  0  0  0  0  0
   16.9766   12.9200    2.7058 H   0  0  0  0  0  0  0  0  0  0  0  0
   12.2687   13.2253    3.2300 H   0  0  0  0  0  0  0  0  0  0  0  0
   12.0038   14.6939    4.2077 H   0  0  0  0  0  0  0  0  0  0  0  0
   17.9728   16.6837    3.0172 H   0  0  0  0  0  0  0  0  0  0  0  0
   20.7515   16.3743    3.3891 H   0  0  0  0  0  0  0  0  0  0  0  0
   19.3709   18.5646    1.8575 H   0  0  0  0  0  0  0  0  0  0  0  0
   20.7315   17.4941    1.3785 H   0  0  0  0  0  0  0  0  0  0  0  0
   19.0496   16.8634    1.3785 H   0  0  0  0  0  0  0  0  0  0  0  0
   19.9050   18.3090    6.3952 H   0  0  0  0  0  0  0  0  0  0  0  0
   18.8146   19.3546    5.4233 H   0  0  0  0  0  0  0  0  0  0  0  0
   18.5858   17.5729    5.4233 H   0  0  0  0  0  0  0  0  0  0  0  0
   21.2928   18.1125    4.6528 H   0  0  0  0  0  0  0  0  0  0  0  0
   20.1780   19.1883    3.6881 H   0  0  0  0  0  0  0  0  0  0  0  0
  2  1  2  0
  3  1  2  0
  4  1  1  0
  5  4  2  0
  6  5  1  0
  7  6  2  0
  8  7  1  0
  9  8  2  0
  9  4  1  0
 10  7  1  0
 11  1  1  0
 12 11  1  0
 13 12  1  0
 15 12  1  0
 15 14  1  0
  5 16  1  0
  6 17  1  0
  8 18  1  0
  9 19  1  0
 10 20  1  0
 10 21  1  0
 11 22  1  0
 12 23  1  6
 13 24  1  0
 13 25  1  0
 13 26  1  0
 14 27  1  0
 14 28  1  0
 14 29  1  0
 15 30  1  0
 15 31  1  0
M  END
$$$$
=
     RDKit          3D

 21 22  0  0  0  0  0  0  0  0999 V2000
   14.1990   14.7120    5.4990 F   0  0  0  0  0  0  0  0  0  0  0  0
   15.4180   15.1610    5.1820 C   0  0  0  0  0  0  0  0  0  0  0  0
   16.1750   15.8570    6.1070 C   0  0  0  0  0  0  0  0  0  0  0  0
   17.4440   16.3120    5.7430 C   0  0  0  0  0  0  0  0  0  0  0  0
   17.9290   16.0590    4.4550 C   0  0  0  0  0  0  0  0  0  0  0  0
   17.1770   15.3690    3.5380 N   0  0  0  0  0  0  0  0  0  0  0  0
   15.9450   14.9400    3.9250 C   0  0  0  0  0  0  0  0  0  0  0  0
   19.2970   16.5040    3.9380 C   0  0  0  0  0  0  0  0  0  0  0  0
   19.6390   17.9610    3.7480 C   0  0  0  0  0  0  0  0  0  0  0  0
   19.4780   17.0680    2.5510 C   0  0  0  0  0  0  0  0  0  0  0  0
   20.3970   15.6480    4.4280 N   0  0  0  0  0  4  0  0  0  0  0  0
   15.7824   16.0496    7.1164 H   0  0  0  0  0  0  0  0  0  0  0  0
   18.0599   16.8671    6.4658 H   0  0  0  0  0  0  0  0  0  0  0  0
   15.3350   14.3864    3.1960 H   0  0  0  0  0  0  0  0  0  0  0  0
   18.8868   18.7346    3.9618 H   0  0  0  0  0  0  0  0  0  0  0  0
   20.4311   18.6281    4.1189 H   0  0  0  0  0  0  0  0  0  0  0  0
   18.6080   17.1882    1.8887 H   0  0  0  0  0  0  0  0  0  0  0  0
   20.1037   16.8113    1.6835 H   0  0  0  0  0  0  0  0  0  0  0  0
   20.3984   15.6469    5.4580 H   0  0  0  0  0  0  0  0  0  0  0  0
   20.2632   14.6865    4.0838 H   0  0  0  0  0  0  0  0  0  0  0  0
   21.2962   16.0139    4.0838 H   0  0  0  0  0  0  0  0  0  0  0  0
  2  1  1  0
  3  2  2  0
  4  3  1  0
  5  4  2  0
  6  5  1  0
  7  2  1  0
  7  6  2  0
  8  5  1  0
  9  8  1  0
 10  9  1  0
 10  8  1  0
 11  8  1  0
  3 12  1  0
  4 13  1  0
  7 14  1  0
  9 15  1  0
  9 16  1  0
 10 17  1  0
 10 18  1  0
 11 19  1  0
 11 20  1  0
 11 21  1  0
M  CHG  1  11   1
M  END
$$$$
=
     RDKit          3D

 29 30  0  0  0  0  0  0  0  0999 V2000
   21.1840   16.5870    5.6590 C   0  0  2  0  0  0  0  0  0  0  0  0
   20.0160   17.5970    5.9010 C   0  0  0  0  0  0  0  0  0  0  0  0
   18.6980   16.9100    5.5620 N   0  0  2  0  0  4  0  0  0  0  0  0
   18.5530   15.5790    6.2910 C   0  0  0  0  0  0  0  0  0  0  0  0
   19.5950   14.6190    5.7130 C   0  0  0  0  0  0  0  0  0  0  0  0
   20.6060   15.3940    4.8300 C   0  0  1  0  0  0  0  0  0  0  0  0
   19.8170   15.9190    3.6090 C   0  0  0  0  0  0  0  0  0  0  0  0
   18.5730   16.6950    4.0630 C   0  0  0  0  0  0  0  0  0  0  0  0
   21.6720   16.0250    6.8970 O   0  0  0  0  0  0  0  0  0  0  0  0
   22.4170   17.2670    5.0090 C   0  0  0  0  0  0  0  0  0  0  0  0
   22.9340   18.3380    5.9180 N   0  0  0  0  0  4  0  0  0  0  0  0
   20.0098   17.9100    6.9555 H   0  0  0  0  0  0  0  0  0  0  0  0
   20.1503   18.4848    5.2655 H   0  0  0  0  0  0  0  0  0  0  0  0
   17.9400   17.5320    5.8774 H   0  0  0  0  0  0  0  0  0  0  0  0
   18.7292   15.7199    7.3676 H   0  0  0  0  0  0  0  0  0  0  0  0
   17.5389   15.1741    6.1580 H   0  0  0  0  0  0  0  0  0  0  0  0
   20.1338   14.1286    6.5371 H   0  0  0  0  0  0  0  0  0  0  0  0
   19.0846   13.8646    5.0962 H   0  0  0  0  0  0  0  0  0  0  0  0
   21.4423   14.7585    4.5032 H   0  0  0  0  0  0  0  0  0  0  0  0
   20.4640   16.5856    3.0199 H   0  0  0  0  0  0  0  0  0  0  0  0
   19.4971   15.0620    2.9981 H   0  0  0  0  0  0  0  0  0  0  0  0
   18.5247   17.6648    3.5462 H   0  0  0  0  0  0  0  0  0  0  0  0
   17.6562   16.1360    3.8244 H   0  0  0  0  0  0  0  0  0  0  0  0
   21.2590   16.5006    7.6608 H   0  0  0  0  0  0  0  0  0  0  0  0
   23.2038   16.5166    4.8420 H   0  0  0  0  0  0  0  0  0  0  0  0
   22.1247   17.7127    4.0468 H   0  0  0  0  0  0  0  0  0  0  0  0
   22.7962   18.0526    6.8980 H   0  0  0  0  0  0  0  0  0  0  0  0
   23.9381   18.4836    5.7407 H   0  0  0  0  0  0  0  0  0  0  0  0
   22.4234   19.2148    5.7407 H   0  0  0  0  0  0  0  0  0  0  0  0
  2  1  1  0
  3  2  1  0
  4  3  1  0
  5  4  1  0
  6  5  1  0
  6  1  1  0
  7  6  1  0
  8  7  1  0
  8  3  1  0
  1  9  1  1
 10  1  1  0
 11 10  1  0
  2 12  1  0
  2 13  1  0
  3 14  1  1
  4 15  1  0
  4 16  1  0
  5 17  1  0
  5 18  1  0
  6 19  1  6
  7 20  1  0
  7 21  1  0
  8 22  1  0
  8 23  1  0
  9 24  1  0
 10 25  1  0
 10 26  1  0
 11 27  1  0
 11 28  1  0
 11 29  1  0
M  CHG  2   3   1  11   1
M  END
$$$$
=
     RDKit          3D

 46 48  0  0  0  0  0  0  0  0999 V2000
   29.0800   24.5820   14.2150 C   0  0  0  0  0  0  0  0  0  0  0  0
   29.0770   24.0920   15.3430 O   0  0  0  0  0  0  0  0  0  0  0  0
   29.0850   25.9240   13.9260 N   0  0  0  0  0  0  0  0  0  0  0  0
   29.0890   26.9960   14.9380 C   0  0  2  0  0  0  0  0  0  0  0  0
   28.7080   28.3310   14.2430 C   0  0  0  0  0  0  0  0  0  0  0  0
   28.6940   29.4930   15.2490 C   0  0  2  0  0  0  0  0  0  0  0  0
   30.0910   29.6330   15.8760 C   0  0  0  0  0  0  0  0  0  0  0  0
   30.4780   28.3300   16.5920 C   0  0  2  0  0  0  0  0  0  0  0  0
   30.4900   27.1750   15.5760 C   0  0  0  0  0  0  0  0  0  0  0  0
   29.4440   28.0280   17.6900 C   0  0  0  0  0  0  0  0  0  0  0  0
   28.0430   27.8850   17.0730 C   0  0  2  0  0  0  0  0  0  0  0  0
   28.0510   26.7300   16.0570 C   0  0  0  0  0  0  0  0  0  0  0  0
   27.6690   29.1910   16.3530 C   0  0  0  0  0  0  0  0  0  0  0  0
   29.0760   23.6440   13.0070 C   0  0  0  0  0  0  0  0  0  0  0  0
   27.6510   23.4140   12.5600 N   0  0  0  0  0  4  0  0  0  0  0  0
   27.2890   24.0330   11.2600 C   0  0  0  0  0  0  0  0  0  0  0  0
   26.1120   24.9970   11.4160 C   0  0  0  0  0  0  0  0  0  0  0  0
   25.5530   26.3970   13.2340 C   0  0  0  0  0  0  0  0  0  0  0  0
   26.5330   26.0660   12.2540 O   0  0  0  0  0  0  0  0  0  0  0  0
   29.0860   26.2010   12.9339 H   0  0  0  0  0  0  0  0  0  0  0  0
   29.4428   28.5478   13.4536 H   0  0  0  0  0  0  0  0  0  0  0  0
   27.7003   28.2271   13.8144 H   0  0  0  0  0  0  0  0  0  0  0  0
   28.4222   30.4279   14.7370 H   0  0  0  0  0  0  0  0  0  0  0  0
   30.8255   29.8463   15.0854 H   0  0  0  0  0  0  0  0  0  0  0  0
   30.0788   30.4562   16.6055 H   0  0  0  0  0  0  0  0  0  0  0  0
   31.4761   28.4379   17.0415 H   0  0  0  0  0  0  0  0  0  0  0  0
   30.7751   26.2448   16.0893 H   0  0  0  0  0  0  0  0  0  0  0  0
   31.2144   27.4085   14.7818 H   0  0  0  0  0  0  0  0  0  0  0  0
   29.7154   27.0904   18.1971 H   0  0  0  0  0  0  0  0  0  0  0  0
   29.4354   28.8565   18.4135 H   0  0  0  0  0  0  0  0  0  0  0  0
   27.3095   27.6762   17.8657 H   0  0  0  0  0  0  0  0  0  0  0  0
   27.0512   26.6364   15.6080 H   0  0  0  0  0  0  0  0  0  0  0  0
   28.3220   25.8003   16.5787 H   0  0  0  0  0  0  0  0  0  0  0  0
   27.6605   30.0177   17.0786 H   0  0  0  0  0  0  0  0  0  0  0  0
   26.6721   29.0820   15.9009 H   0  0  0  0  0  0  0  0  0  0  0  0
   29.6500   24.0989   12.1863 H   0  0  0  0  0  0  0  0  0  0  0  0
   29.5356   22.6837   13.2838 H   0  0  0  0  0  0  0  0  0  0  0  0
   27.5016   22.3979   12.4818 H   0  0  0  0  0  0  0  0  0  0  0  0
   27.0531   23.8643   13.2675 H   0  0  0  0  0  0  0  0  0  0  0  0
   28.1569   24.5861   10.8717 H   0  0  0  0  0  0  0  0  0  0  0  0
   26.9953   23.2341   10.5632 H   0  0  0  0  0  0  0  0  0  0  0  0
   25.8156   25.3879   10.4314 H   0  0  0  0  0  0  0  0  0  0  0  0
   25.2480   24.4796   11.8585 H   0  0  0  0  0  0  0  0  0  0  0  0
   25.9766   26.2539   14.2390 H   0  0  0  0  0  0  0  0  0  0  0  0
   25.2503   27.4472   13.1098 H   0  0  0  0  0  0  0  0  0  0  0  0
   24.6755   25.7454   13.1098 H   0  0  0  0  0  0  0  0  0  0  0  0
  2  1  2  0
  3  1  1  0
  4  3  1  6
  5  4  1  0
  6  5  1  0
  7  6  1  0
  8  7  1  0
  9  4  1  0
  9  8  1  0
 10  8  1  0
 11 10  1  0
 12  4  1  0
 12 11  1  0
 13  6  1  0
 13 11  1  0
 14  1  1  0
 15 14  1  0
 16 15  1  0
 17 16  1  0
 19 18  1  0
 19 17  1  0
  3 20  1  0
  5 21  1  0
  5 22  1  0
  6 23  1  6
  7 24  1  0
  7 25  1  0
  8 26  1  1
  9 27  1  0
  9 28  1  0
 10 29  1  0
 10 30  1  0
 11 31  1  1
 12 32  1  0
 12 33  1  0
 13 34  1  0
 13 35  1  0
 14 36  1  0
 14 37  1  0
 15 38  1  0
 15 39  1  0
 16 40  1  0
 16 41  1  0
 17 42  1  0
 17 43  1  0
 18 44  1  0
 18 45  1  0
 18 46  1  0
M  CHG  1  15   1
M  END
$$$$
=
     RDKit          3D

 21 21  0  0  0  0  0  0  0  0999 V2000
   16.8700   15.0760    3.5870 C   0  0  1  0  0  0  0  0  0  0  0  0
   15.7290   14.0260    3.5940 C   0  0  0  0  0  0  0  0  0  0  0  0
   14.8090   15.1110    4.1920 C   0  0  0  0  0  0  0  0  0  0  0  0
   16.0780   15.8270    4.7120 C   0  0  1  0  0  0  0  0  0  0  0  0
   16.4430   15.5570    6.1590 C   0  0  0  0  0  0  0  0  0  0  0  0
   15.3390   15.1510    6.8210 F   0  0  0  0  0  0  0  0  0  0  0  0
   16.8060   16.7550    6.7020 F   0  0  0  0  0  0  0  0  0  0  0  0
   18.2670   14.5350    3.8330 C   0  0  0  0  0  0  0  0  0  0  0  0
   18.5240   13.3020    3.0500 N   0  0  0  0  0  4  0  0  0  0  0  0
   17.1933   15.6345    2.6962 H   0  0  0  0  0  0  0  0  0  0  0  0
   15.4287   13.6708    2.5972 H   0  0  0  0  0  0  0  0  0  0  0  0
   15.8526   13.0463    4.0787 H   0  0  0  0  0  0  0  0  0  0  0  0
   14.2345   15.6829    3.4485 H   0  0  0  0  0  0  0  0  0  0  0  0
   13.9797   14.8517    4.8666 H   0  0  0  0  0  0  0  0  0  0  0  0
   16.1505   16.9203    4.8093 H   0  0  0  0  0  0  0  0  0  0  0  0
   17.2379   14.7995    6.2249 H   0  0  0  0  0  0  0  0  0  0  0  0
   19.0018   15.3007    3.5435 H   0  0  0  0  0  0  0  0  0  0  0  0
   18.3554   14.2873    4.9011 H   0  0  0  0  0  0  0  0  0  0  0  0
   18.6881   12.5146    3.6934 H   0  0  0  0  0  0  0  0  0  0  0  0
   17.7079   13.0959    2.4564 H   0  0  0  0  0  0  0  0  0  0  0  0
   19.3545   13.4391    2.4564 H   0  0  0  0  0  0  0  0  0  0  0  0
  2  1  1  0
  3  2  1  0
  4  3  1  0
  4  1  1  0
  5  4  1  0
  6  5  1  0
  7  5  1  0
  8  1  1  0
  9  8  1  0
  1 10  1  6
  2 11  1  0
  2 12  1  0
  3 13  1  0
  3 14  1  0
  4 15  1  6
  5 16  1  0
  8 17  1  0
  8 18  1  0
  9 19  1  0
  9 20  1  0
  9 21  1  0
M  CHG  1   9   1
M  END
$$$$
=
     RDKit          3D

 29 30  0  0  0  0  0  0  0  0999 V2000
   19.3050   16.4430    4.6330 C   0  0  0  0  0  0  0  0  0  0  0  0
   19.4940   17.7890    5.3890 C   0  0  0  0  0  0  0  0  0  0  0  0
   20.9580   18.1100    5.6740 C   0  0  0  0  0  0  0  0  0  0  0  0
   21.5710   17.0430    6.3780 O   0  0  0  0  0  0  0  0  0  0  0  0
   21.5610   15.8080    5.6770 C   0  0  0  0  0  0  0  0  0  0  0  0
   20.1300   15.3660    5.3940 C   0  0  0  0  0  0  0  0  0  0  0  0
   17.8200   16.0190    4.5820 C   0  0  0  0  0  0  0  0  0  0  0  0
   17.3220   15.0100    3.7700 C   0  0  0  0  0  0  0  0  0  0  0  0
   15.6290   14.8160    3.8850 S   0  0  0  0  0  0  0  0  0  0  0  0
   15.5160   16.0490    5.0550 C   0  0  0  0  0  0  0  0  0  0  0  0
   16.7430   16.6090    5.3360 C   0  0  0  0  0  0  0  0  0  0  0  0
   19.8360   16.5520    3.1650 C   0  0  0  0  0  0  0  0  0  0  0  0
   19.3580   17.7910    2.4820 N   0  0  0  0  0  4  0  0  0  0  0  0
   19.0702   18.5982    4.7761 H   0  0  0  0  0  0  0  0  0  0  0  0
   18.9816   17.6978    6.3581 H   0  0  0  0  0  0  0  0  0  0  0  0
   21.4864   18.2668    4.7221 H   0  0  0  0  0  0  0  0  0  0  0  0
   21.0099   19.0198    6.2901 H   0  0  0  0  0  0  0  0  0  0  0  0
   22.0978   15.9282    4.7244 H   0  0  0  0  0  0  0  0  0  0  0  0
   22.0534   15.0437    6.2961 H   0  0  0  0  0  0  0  0  0  0  0  0
   20.1590   14.4505    4.7849 H   0  0  0  0  0  0  0  0  0  0  0  0
   19.6383   15.1963    6.3633 H   0  0  0  0  0  0  0  0  0  0  0  0
   17.9564   14.3944    3.1153 H   0  0  0  0  0  0  0  0  0  0  0  0
   14.5743   16.3613    5.5301 H   0  0  0  0  0  0  0  0  0  0  0  0
   16.8859   17.4232    6.0617 H   0  0  0  0  0  0  0  0  0  0  0  0
   20.9358   16.5611    3.1860 H   0  0  0  0  0  0  0  0  0  0  0  0
   19.4530   15.6876    2.6027 H   0  0  0  0  0  0  0  0  0  0  0  0
   19.0882   18.4902    3.1886 H   0  0  0  0  0  0  0  0  0  0  0  0
   20.1127   18.1714    1.8932 H   0  0  0  0  0  0  0  0  0  0  0  0
   18.5434   17.5660    1.8932 H   0  0  0  0  0  0  0  0  0  0  0  0
  2  1  1  0
  3  2  1  0
  4  3  1  0
  5  4  1  0
  6  5  1  0
  6  1  1  0
  7  1  1  0
  8  7  2  0
  9  8  1  0
 10  9  1  0
 11 10  2  0
 11  7  1  0
 12  1  1  0
 13 12  1  0
  2 14  1  0
  2 15  1  0
  3 16  1  0
  3 17  1  0
  5 18  1  0
  5 19  1  0
  6 20  1  0
  6 21  1  0
  8 22  1  0
 10 23  1  0
 11 24  1  0
 12 25  1  0
 12 26  1  0
 13 27  1  0
 13 28  1  0
 13 29  1  0
M  CHG  1  13   1
M  END
$$$$
=
     RDKit          3D

 25 25  0  0  0  0  0  0  0  0999 V2000
   19.8590   15.6060    5.3540 C   0  0  2  0  0  0  0  0  0  0  0  0
   18.3550   15.5230    5.1970 C   0  0  0  0  0  0  0  0  0  0  0  0
   17.5250   15.8360    6.2850 C   0  0  0  0  0  0  0  0  0  0  0  0
   16.1360   15.7570    6.1650 C   0  0  0  0  0  0  0  0  0  0  0  0
   15.5600   15.3650    4.9600 C   0  0  0  0  0  0  0  0  0  0  0  0
   16.3700   15.0560    3.8710 C   0  0  0  0  0  0  0  0  0  0  0  0
   17.7600   15.1350    3.9860 C   0  0  0  0  0  0  0  0  0  0  0  0
   20.3460   14.8050    6.5750 C   0  0  0  0  0  0  0  0  0  0  0  0
   21.4600   15.4810    7.1770 O   0  0  0  0  0  0  0  0  0  0  0  0
   20.3310   17.0720    5.3970 C   0  0  0  0  0  0  0  0  0  0  0  0
   21.6350   17.2160    4.6970 N   0  0  0  0  0  4  0  0  0  0  0  0
   20.3164   15.1413    4.4681 H   0  0  0  0  0  0  0  0  0  0  0  0
   17.9728   16.1463    7.2406 H   0  0  0  0  0  0  0  0  0  0  0  0
   15.4958   16.0050    7.0244 H   0  0  0  0  0  0  0  0  0  0  0  0
   14.4658   15.2995    4.8684 H   0  0  0  0  0  0  0  0  0  0  0  0
   15.9147   14.7490    2.9179 H   0  0  0  0  0  0  0  0  0  0  0  0
   18.3936   14.8912    3.1205 H   0  0  0  0  0  0  0  0  0  0  0  0
   19.5295   14.7199    7.3072 H   0  0  0  0  0  0  0  0  0  0  0  0
   20.6568   13.7998    6.2540 H   0  0  0  0  0  0  0  0  0  0  0  0
   21.3814   15.4333    8.1627 H   0  0  0  0  0  0  0  0  0  0  0  0
   19.5821   17.7088    4.9034 H   0  0  0  0  0  0  0  0  0  0  0  0
   20.4531   17.3775    6.4466 H   0  0  0  0  0  0  0  0  0  0  0  0
   22.3905   17.2994    5.3921 H   0  0  0  0  0  0  0  0  0  0  0  0
   21.8012   16.3883    4.1070 H   0  0  0  0  0  0  0  0  0  0  0  0
   21.6166   18.0601    4.1070 H   0  0  0  0  0  0  0  0  0  0  0  0
  2  1  1  0
  3  2  2  0
  4  3  1  0
  5  4  2  0
  6  5  1  0
  7  6  2  0
  7  2  1  0
  8  1  1  0
  9  8  1  0
 10  1  1  0
 11 10  1  0
  1 12  1  6
  3 13  1  0
  4 14  1  0
  5 15  1  0
  6 16  1  0
  7 17  1  0
  8 18  1  0
  8 19  1  0
  9 20  1  0
 10 21  1  0
 10 22  1  0
 11 23  1  0
 11 24  1  0
 11 25  1  0
M  CHG  1  11   1
M  END
$$$$
=
     RDKit          3D

 42 43  0  0  0  0  0  0  0  0999 V2000
   25.4890   26.1940   12.8130 C   0  0  0  0  0  0  0  0  0  0  0  0
   26.2550   26.8460   13.7490 C   0  0  0  0  0  0  0  0  0  0  0  0
   27.5910   26.5060   13.8010 C   0  0  0  0  0  0  0  0  0  0  0  0
   28.0950   25.5740   12.9800 N   0  0  0  0  0  0  0  0  0  0  0  0
   27.2670   24.9940   12.0950 C   0  0  0  0  0  0  0  0  0  0  0  0
   25.9660   25.2730   11.9700 N   0  0  0  0  0  0  0  0  0  0  0  0
   28.4330   27.1410   14.7590 N   0  0  0  0  0  0  0  0  0  0  0  0
   29.7080   26.4010   14.9120 C   0  0  0  0  0  0  0  0  0  0  0  0
   30.5080   27.0170   16.0620 C   0  0  0  0  0  0  0  0  0  0  0  0
   30.6900   28.5230   15.8680 C   0  0  0  0  0  0  0  0  0  0  0  0
   29.3520   29.2400   15.6070 C   0  0  1  0  0  0  0  0  0  0  0  0
   28.6310   28.5600   14.4260 C   0  0  0  0  0  0  0  0  0  0  0  0
   28.0030   23.7810   11.0260 S   0  0  0  0  0  0  0  0  0  0  0  0
   26.7060   22.5190   11.0160 C   0  0  0  0  0  0  0  0  0  0  0  0
   24.1570   26.5560   12.7680 O   0  0  0  0  0  0  0  0  0  0  0  0
   22.1920   26.9920   11.4040 C   0  0  0  0  0  0  0  0  0  0  0  0
   23.4630   26.1760   11.5760 C   0  0  0  0  0  0  0  0  0  0  0  0
   28.4100   29.2680   16.8180 C   0  0  0  0  0  0  0  0  0  0  0  0
   27.0310   29.6470   16.4140 N   0  0  0  0  0  4  0  0  0  0  0  0
   25.8245   27.6012   14.4231 H   0  0  0  0  0  0  0  0  0  0  0  0
   29.4967   25.3446   15.1343 H   0  0  0  0  0  0  0  0  0  0  0  0
   30.2885   26.4651   13.9799 H   0  0  0  0  0  0  0  0  0  0  0  0
   29.9726   26.8395   17.0064 H   0  0  0  0  0  0  0  0  0  0  0  0
   31.5023   26.5471   16.0841 H   0  0  0  0  0  0  0  0  0  0  0  0
   31.1472   28.9447   16.7753 H   0  0  0  0  0  0  0  0  0  0  0  0
   31.3331   28.6758   14.9887 H   0  0  0  0  0  0  0  0  0  0  0  0
   29.6028   30.2867   15.3800 H   0  0  0  0  0  0  0  0  0  0  0  0
   29.2441   28.6464   13.5168 H   0  0  0  0  0  0  0  0  0  0  0  0
   27.6605   29.0452   14.2452 H   0  0  0  0  0  0  0  0  0  0  0  0
   26.4391   22.2593   12.0510 H   0  0  0  0  0  0  0  0  0  0  0  0
   25.8189   22.9090   10.4954 H   0  0  0  0  0  0  0  0  0  0  0  0
   27.0716   21.6216   10.4954 H   0  0  0  0  0  0  0  0  0  0  0  0
   21.7867   27.2522   12.3929 H   0  0  0  0  0  0  0  0  0  0  0  0
   22.4200   27.9129   10.8473 H   0  0  0  0  0  0  0  0  0  0  0  0
   21.4496   26.4013   10.8473 H   0  0  0  0  0  0  0  0  0  0  0  0
   23.2007   25.1095   11.6366 H   0  0  0  0  0  0  0  0  0  0  0  0
   24.1193   26.3621   10.7131 H   0  0  0  0  0  0  0  0  0  0  0  0
   28.3877   28.2695   17.2791 H   0  0  0  0  0  0  0  0  0  0  0  0
   28.7826   30.0158   17.5335 H   0  0  0  0  0  0  0  0  0  0  0  0
   26.4579   29.8045   17.2552 H   0  0  0  0  0  0  0  0  0  0  0  0
   27.0626   30.5105   15.8534 H   0  0  0  0  0  0  0  0  0  0  0  0
   26.6168   28.8887   15.8534 H   0  0  0  0  0  0  0  0  0  0  0  0
  2  1  2  0
  3  2  1  0
  4  3  2  0
  5  4  1  0
  6  1  1  0
  6  5  2  0
  7  3  1  0
  8  7  1  0
  9  8  1  0
 10  9  1  0
 11 10  1  0
 12  7  1  0
 12 11  1  0
 13  5  1  0
 14 13  1  0
 15  1  1  0
 17 16  1  0
 17 15  1  0
 18 11  1  0
 19 18  1  0
  2 20  1  0
  8 21  1  0
  8 22  1  0
  9 23  1  0
  9 24  1  0
 10 25  1  0
 10 26  1  0
 11 27  1  6
 12 28  1  0
 12 29  1  0
 14 30  1  0
 14 31  1  0
 14 32  1  0
 16 33  1  0
 16 34  1  0
 16 35  1  0
 17 36  1  0
 17 37  1  0
 18 38  1  0
 18 39  1  0
 19 40  1  0
 19 41  1  0
 19 42  1  0
M  CHG  1  19   1
M  END
$$$$
=
     RDKit          3D

 28 29  0  0  0  0  0  0  0  0999 V2000
   16.6320   16.1150    6.0520 C   0  0  0  0  0  0  0  0  0  0  0  0
   17.4910   16.2410    4.7930 C   0  0  1  0  0  0  0  0  0  0  0  0
   18.5490   17.3410    4.9630 C   0  0  0  0  0  0  0  0  0  0  0  0
   19.3520   17.5820    3.6850 C   0  0  0  0  0  0  0  0  0  0  0  0
   19.5240   16.3210    2.9010 N   0  0  0  0  0  4  0  0  0  0  0  0
   19.5160   15.0640    3.7180 C   0  0  0  0  0  0  0  0  0  0  0  0
   18.1650   14.8880    4.4420 C   0  0  2  0  0  0  0  0  0  0  0  0
   17.2960   14.0000    3.6760 N   0  0  0  0  0  0  0  0  0  0  0  0
   17.6840   12.8020    3.1410 C   0  0  0  0  0  0  0  0  0  0  0  0
   16.7300   12.2810    2.4080 N   0  0  0  0  0  0  0  0  0  0  0  0
   15.6760   13.1460    2.5010 C   0  0  0  0  0  0  0  0  0  0  0  0
   16.0080   14.2310    3.2790 C   0  0  0  0  0  0  0  0  0  0  0  0
   17.2708   16.2087    6.9426 H   0  0  0  0  0  0  0  0  0  0  0  0
   15.8733   16.9115    6.0595 H   0  0  0  0  0  0  0  0  0  0  0  0
   16.1340   15.1342    6.0595 H   0  0  0  0  0  0  0  0  0  0  0  0
   16.8298   16.5212    3.9597 H   0  0  0  0  0  0  0  0  0  0  0  0
   18.0434   18.2767    5.2438 H   0  0  0  0  0  0  0  0  0  0  0  0
   19.2517   17.0118    5.7427 H   0  0  0  0  0  0  0  0  0  0  0  0
   18.8228   18.3198    3.0640 H   0  0  0  0  0  0  0  0  0  0  0  0
   20.3487   17.9516    3.9678 H   0  0  0  0  0  0  0  0  0  0  0  0
   18.7566   16.2626    2.2164 H   0  0  0  0  0  0  0  0  0  0  0  0
   20.4556   16.3765    2.4652 H   0  0  0  0  0  0  0  0  0  0  0  0
   19.6846   14.2024    3.0553 H   0  0  0  0  0  0  0  0  0  0  0  0
   20.3138   15.1295    4.4725 H   0  0  0  0  0  0  0  0  0  0  0  0
   18.3599   14.4103    5.4135 H   0  0  0  0  0  0  0  0  0  0  0  0
   18.6674   12.3370    3.3044 H   0  0  0  0  0  0  0  0  0  0  0  0
   14.6980   12.9956    2.0205 H   0  0  0  0  0  0  0  0  0  0  0  0
   15.3753   15.0958    3.5275 H   0  0  0  0  0  0  0  0  0  0  0  0
  2  1  1  0
  3  2  1  0
  4  3  1  0
  5  4  1  0
  6  5  1  0
  7  6  1  0
  7  2  1  0
  8  7  1  0
  9  8  1  0
 10  9  2  0
 11 10  1  0
 12 11  2  0
 12  8  1  0
  1 13  1  0
  1 14  1  0
  1 15  1  0
  2 16  1  6
  3 17  1  0
  3 18  1  0
  4 19  1  0
  4 20  1  0
  5 21  1  0
  5 22  1  0
  6 23  1  0
  6 24  1  0
  7 25  1  1
  9 26  1  0
 11 27  1  0
 12 28  1  0
M  CHG  1   5   1
M  END
$$$$
=
     RDKit          3D

 68 72  0  0  0  0  0  0  0  0999 V2000
   27.4200   23.0080   11.0470 C   0  0  0  0  0  0  0  0  0  0  0  0
   26.7480   23.9910   11.9620 C   0  0  0  0  0  0  0  0  0  0  0  0
   27.3960   25.1710   12.3320 C   0  0  0  0  0  0  0  0  0  0  0  0
   26.8040   26.0810   13.2140 C   0  0  0  0  0  0  0  0  0  0  0  0
   25.5360   25.7770   13.7360 C   0  0  0  0  0  0  0  0  0  0  0  0
   24.8670   24.6000   13.3960 C   0  0  0  0  0  0  0  0  0  0  0  0
   25.4890   23.6970   12.5060 C   0  0  0  0  0  0  0  0  0  0  0  0
   23.6190   24.5970   14.0930 C   0  0  0  0  0  0  0  0  0  0  0  0
   23.5470   25.7610   14.8490 C   0  0  0  0  0  0  0  0  0  0  0  0
   24.7100   26.4690   14.6020 N   0  0  0  0  0  0  0  0  0  0  0  0
   22.5620   23.5970   14.0370 C   0  0  0  0  0  0  0  0  0  0  0  0
   22.3840   22.7080   15.1040 C   0  0  0  0  0  0  0  0  0  0  0  0
   21.3710   21.7490   15.0600 C   0  0  0  0  0  0  0  0  0  0  0  0
   20.5300   21.6730   13.9510 C   0  0  0  0  0  0  0  0  0  0  0  0
   20.6970   22.5580   12.8870 C   0  0  0  0  0  0  0  0  0  0  0  0
   21.7090   23.5190   12.9290 C   0  0  0  0  0  0  0  0  0  0  0  0
   22.4640   26.2570   15.7030 C   0  0  0  0  0  0  0  0  0  0  0  0
   22.4510   25.9550   17.0690 C   0  0  0  0  0  0  0  0  0  0  0  0
   21.4110   26.4100   17.8810 C   0  0  0  0  0  0  0  0  0  0  0  0
   20.3820   27.1760   17.3340 C   0  0  0  0  0  0  0  0  0  0  0  0
   20.3970   27.4970   15.9770 C   0  0  0  0  0  0  0  0  0  0  0  0
   21.4370   27.0420   15.1630 C   0  0  0  0  0  0  0  0  0  0  0  0
   24.9870   27.8120   15.1050 C   0  0  0  0  0  0  0  0  0  0  0  0
   25.9780   27.7670   16.2740 C   0  0  2  0  0  0  0  0  0  0  0  0
   25.2700   27.8330   17.5310 O   0  0  0  0  0  0  0  0  0  0  0  0
   26.9390   28.9670   16.2580 C   0  0  0  0  0  0  0  0  0  0  0  0
   27.1480   29.3840   14.8260 N   0  0  0  0  0  4  0  0  0  0  0  0
   28.5350   29.1890   14.3080 C   0  0  0  0  0  0  0  0  0  0  0  0
   29.5150   29.1050   15.4780 C   0  0  0  0  0  0  0  0  0  0  0  0
   29.8720   27.6730   15.7720 C   0  0  0  0  0  0  0  0  0  0  0  0
   29.9640   26.7350   14.7340 C   0  0  0  0  0  0  0  0  0  0  0  0
   30.2640   25.4010   15.0140 C   0  0  0  0  0  0  0  0  0  0  0  0
   30.4710   24.9920   16.3290 C   0  0  0  0  0  0  0  0  0  0  0  0
   30.3810   25.9160   17.3670 C   0  0  0  0  0  0  0  0  0  0  0  0
   30.0820   27.2510   17.0920 C   0  0  0  0  0  0  0  0  0  0  0  0
   27.9407   22.2463   11.6459 H   0  0  0  0  0  0  0  0  0  0  0  0
   26.6643   22.5219   10.4124 H   0  0  0  0  0  0  0  0  0  0  0  0
   28.1472   23.5357   10.4124 H   0  0  0  0  0  0  0  0  0  0  0  0
   28.3928   25.3896   11.9214 H   0  0  0  0  0  0  0  0  0  0  0  0
   27.3191   27.0123   13.4921 H   0  0  0  0  0  0  0  0  0  0  0  0
   24.9832   22.7577   12.2378 H   0  0  0  0  0  0  0  0  0  0  0  0
   23.0456   22.7657   15.9809 H   0  0  0  0  0  0  0  0  0  0  0  0
   21.2362   21.0528   15.9009 H   0  0  0  0  0  0  0  0  0  0  0  0
   19.7342   20.9144   13.9154 H   0  0  0  0  0  0  0  0  0  0  0  0
   20.0309   22.4992   12.0136 H   0  0  0  0  0  0  0  0  0  0  0  0
   21.8368   24.2174   12.0888 H   0  0  0  0  0  0  0  0  0  0  0  0
   23.2642   25.3562   17.5051 H   0  0  0  0  0  0  0  0  0  0  0  0
   21.4030   26.1642   18.9532 H   0  0  0  0  0  0  0  0  0  0  0  0
   19.5584   27.5271   17.9730 H   0  0  0  0  0  0  0  0  0  0  0  0
   19.5898   28.1086   15.5476 H   0  0  0  0  0  0  0  0  0  0  0  0
   21.4496   27.3010   14.0940 H   0  0  0  0  0  0  0  0  0  0  0  0
   25.4151   28.4189   14.2936 H   0  0  0  0  0  0  0  0  0  0  0  0
   24.0448   28.2543   15.4609 H   0  0  0  0  0  0  0  0  0  0  0  0
   26.5398   26.8274   16.1669 H   0  0  0  0  0  0  0  0  0  0  0  0
   25.9171   27.7727   18.2778 H   0  0  0  0  0  0  0  0  0  0  0  0
   26.5034   29.8004   16.8287 H   0  0  0  0  0  0  0  0  0  0  0  0
   27.8996   28.6904   16.7171 H   0  0  0  0  0  0  0  0  0  0  0  0
   26.5065   28.8347   14.2364 H   0  0  0  0  0  0  0  0  0  0  0  0
   26.9678   30.3976   14.7921 H   0  0  0  0  0  0  0  0  0  0  0  0
   28.5801   28.2569   13.7256 H   0  0  0  0  0  0  0  0  0  0  0  0
   28.8068   30.0395   13.6656 H   0  0  0  0  0  0  0  0  0  0  0  0
   30.4298   29.6601   15.2231 H   0  0  0  0  0  0  0  0  0  0  0  0
   29.0396   29.5407   16.3691 H   0  0  0  0  0  0  0  0  0  0  0  0
   29.7989   27.0521   13.6937 H   0  0  0  0  0  0  0  0  0  0  0  0
   30.3371   24.6712   14.1943 H   0  0  0  0  0  0  0  0  0  0  0  0
   30.7054   23.9398   16.5477 H   0  0  0  0  0  0  0  0  0  0  0  0
   30.5459   25.5929   18.4055 H   0  0  0  0  0  0  0  0  0  0  0  0
   30.0107   27.9763   17.9159 H   0  0  0  0  0  0  0  0  0  0  0  0
  2  1  1  0
  3  2  2  0
  4  3  1  0
  5  4  2  0
  6  5  1  0
  7  6  2  0
  7  2  1  0
  8  6  1  0
  9  8  2  0
 10  9  1  0
 10  5  1  0
 11  8  1  0
 12 11  2  0
 13 12  1  0
 14 13  2  0
 15 14  1  0
 16 15  2  0
 16 11  1  0
 17  9  1  0
 18 17  2  0
 19 18  1  0
 20 19  2  0
 21 20  1  0
 22 21  2  0
 22 17  1  0
 23 10  1  0
 24 23  1  0
 25 24  1  0
 26 24  1  0
 27 26  1  0
 28 27  1  0
 29 28  1  0
 30 29  1  0
 31 30  2  0
 32 31  1  0
 33 32  2  0
 34 33  1  0
 35 34  2  0
 35 30  1  0
  1 36  1  0
  1 37  1  0
  1 38  1  0
  3 39  1  0
  4 40  1  0
  7 41  1  0
 12 42  1  0
 13 43  1  0
 14 44  1  0
 15 45  1  0
 16 46  1  0
 18 47  1  0
 19 48  1  0
 20 49  1  0
 21 50  1  0
 22 51  1  0
 23 52  1  0
 23 53  1  0
 24 54  1  1
 25 55  1  0
 26 56  1  0
 26 57  1  0
 27 58  1  0
 27 59  1  0
 28 60  1  0
 28 61  1  0
 29 62  1  0
 29 63  1  0
 31 64  1  0
 32 65  1  0
 33 66  1  0
 34 67  1  0
 35 68  1  0
M  CHG  1  27   1
M  END
$$$$
=
     RDKit          3D

 27 28  0  0  0  0  0  0  0  0999 V2000
   18.0940   14.7320    3.8470 C   0  0  0  0  0  0  0  0  0  0  0  0
   18.2590   13.4890    3.2580 C   0  0  0  0  0  0  0  0  0  0  0  0
   17.2280   12.6760    2.9260 N   0  0  0  0  0  0  0  0  0  0  0  0
   15.9790   13.1140    3.1890 C   0  0  0  0  0  0  0  0  0  0  0  0
   15.7040   14.3610    3.7900 C   0  0  0  0  0  0  0  0  0  0  0  0
   16.7900   15.1590    4.1090 C   0  0  0  0  0  0  0  0  0  0  0  0
   14.4600   14.7930    4.0670 N   0  0  0  0  0  0  0  0  0  0  0  0
   13.4350   13.9740    3.7350 C   0  0  0  0  0  0  0  0  0  0  0  0
   13.5790   12.7540    3.0860 C   0  0  0  0  0  0  0  0  0  0  0  0
   14.8860   12.3200    2.8670 C   0  0  0  0  0  0  0  0  0  0  0  0
   12.4970   11.8940    2.8700 N   0  0  0  0  0  0  0  0  0  0  0  0
   19.2320   15.6080    4.2020 C   0  0  0  0  0  0  0  0  0  0  0  0
   20.3270   15.1840    4.5300 O   0  0  0  0  0  0  0  0  0  0  0  0
   18.8750   16.9120    4.1120 O   0  0  0  0  0  0  0  0  0  0  0  0
   19.6910   17.5140    1.9480 C   0  0  0  0  0  0  0  0  0  0  0  0
   19.8370   17.7380    3.4400 C   0  0  0  0  0  0  0  0  0  0  0  0
   19.2823   13.1439    3.0488 H   0  0  0  0  0  0  0  0  0  0  0  0
   16.6236   16.1416    4.5746 H   0  0  0  0  0  0  0  0  0  0  0  0
   12.4167   14.2968    3.9973 H   0  0  0  0  0  0  0  0  0  0  0  0
   15.0553   11.3253    2.4289 H   0  0  0  0  0  0  0  0  0  0  0  0
   12.6411   10.9968    2.3850 H   0  0  0  0  0  0  0  0  0  0  0  0
   11.5563   12.1579    3.1960 H   0  0  0  0  0  0  0  0  0  0  0  0
   19.0983   16.6046    1.7700 H   0  0  0  0  0  0  0  0  0  0  0  0
   19.1820   18.3778    1.4956 H   0  0  0  0  0  0  0  0  0  0  0  0
   20.6868   17.3970    1.4956 H   0  0  0  0  0  0  0  0  0  0  0  0
   20.8528   17.4632    3.7605 H   0  0  0  0  0  0  0  0  0  0  0  0
   19.6665   18.7968    3.6845 H   0  0  0  0  0  0  0  0  0  0  0  0
  2  1  2  0
  3  2  1  0
  4  3  2  0
  5  4  1  0
  6  5  2  0
  6  1  1  0
  7  5  1  0
  8  7  2  0
  9  8  1  0
 10  9  2  0
 10  4  1  0
 11  9  1  0
 12  1  1  0
 13 12  2  0
 14 12  1  0
 16 15  1  0
 16 14  1  0
  2 17  1  0
  6 18  1  0
  8 19  1  0
 10 20  1  0
 11 21  1  0
 11 22  1  0
 15 23  1  0
 15 24  1  0
 15 25  1  0
 16 26  1  0
 16 27  1  0
M  END
$$$$
=
     RDKit          3D

 22 22  0  0  0  0  0  0  0  0999 V2000
   20.5990   17.2870    4.9680 C   0  0  2  0  0  0  0  0  0  0  0  0
   20.9650   18.6300    5.6100 C   0  0  0  0  0  0  0  0  0  0  0  0
   19.3820   16.8690    5.6490 O   0  0  0  0  0  0  0  0  0  0  0  0
   19.1660   15.4560    5.6440 C   0  0  0  0  0  0  0  0  0  0  0  0
   20.2280   14.7510    6.4970 C   0  0  0  0  0  0  0  0  0  0  0  0
   21.5220   15.5300    6.4790 N   0  0  0  0  0  4  0  0  0  0  0  0
   21.7330   16.2530    5.1720 C   0  0  0  0  0  0  0  0  0  0  0  0
   19.2420   18.2080    3.2610 F   0  0  0  0  0  0  0  0  0  0  0  0
   20.3800   17.4930    3.4570 C   0  0  0  0  0  0  0  0  0  0  0  0
   21.3940   18.2070    2.9200 F   0  0  0  0  0  0  0  0  0  0  0  0
   20.9383   18.5322    6.7053 H   0  0  0  0  0  0  0  0  0  0  0  0
   21.9762   18.9246    5.2927 H   0  0  0  0  0  0  0  0  0  0  0  0
   20.2431   19.3969    5.2927 H   0  0  0  0  0  0  0  0  0  0  0  0
   18.1688   15.2401    6.0550 H   0  0  0  0  0  0  0  0  0  0  0  0
   19.2359   15.0875    4.6099 H   0  0  0  0  0  0  0  0  0  0  0  0
   19.8669   14.6725    7.5331 H   0  0  0  0  0  0  0  0  0  0  0  0
   20.4099   13.7485    6.0825 H   0  0  0  0  0  0  0  0  0  0  0  0
   21.5034   16.2220    7.2417 H   0  0  0  0  0  0  0  0  0  0  0  0
   22.2959   14.8609    6.5991 H   0  0  0  0  0  0  0  0  0  0  0  0
   22.7031   16.7712    5.1916 H   0  0  0  0  0  0  0  0  0  0  0  0
   21.7225   15.5279    4.3449 H   0  0  0  0  0  0  0  0  0  0  0  0
   20.3212   16.5015    2.9843 H   0  0  0  0  0  0  0  0  0  0  0  0
  1  2  1  1
  3  1  1  0
  4  3  1  0
  5  4  1  0
  6  5  1  0
  7  6  1  0
  7  1  1  0
  9  8  1  0
  9  1  1  0
 10  9  1  0
  2 11  1  0
  2 12  1  0
  2 13  1  0
  4 14  1  0
  4 15  1  0
  5 16  1  0
  5 17  1  0
  6 18  1  0
  6 19  1  0
  7 20  1  0
  7 21  1  0
  9 22  1  0
M  CHG  1   6   1
M  END
$$$$
=
     RDKit          3D

 29 30  0  0  0  0  0  0  0  0999 V2000
   20.0550   16.2960    3.8540 N   0  0  1  0  0  4  0  0  0  0  0  0
   20.7000   15.5200    5.0390 C   0  0  0  0  0  0  0  0  0  0  0  0
   19.5320   14.6290    5.5140 C   0  0  2  0  0  0  0  0  0  0  0  0
   18.8350   14.3200    4.1860 C   0  0  0  0  0  0  0  0  0  0  0  0
   18.5980   15.7980    3.8580 C   0  0  1  0  0  0  0  0  0  0  0  0
   17.9110   16.2080    5.1300 C   0  0  0  0  0  0  0  0  0  0  0  0
   18.4720   15.5150    6.1340 C   0  0  0  0  0  0  0  0  0  0  0  0
   20.3620   17.7510    3.6900 C   0  0  0  0  0  0  0  0  0  0  0  0
   20.9850   18.4430    4.9100 C   0  0  0  0  0  0  0  0  0  0  0  0
   22.4500   18.8040    4.6430 C   0  0  0  0  0  0  0  0  0  0  0  0
   23.2960   18.4370    5.8070 N   0  0  0  0  0  4  0  0  0  0  0  0
   20.5056   16.0883    2.9514 H   0  0  0  0  0  0  0  0  0  0  0  0
   21.5537   14.9136    4.7020 H   0  0  0  0  0  0  0  0  0  0  0  0
   21.1086   16.1716    5.8254 H   0  0  0  0  0  0  0  0  0  0  0  0
   19.8716   13.8108    6.1661 H   0  0  0  0  0  0  0  0  0  0  0  0
   19.4872   13.8124    3.4601 H   0  0  0  0  0  0  0  0  0  0  0  0
   17.9714   13.6387    4.1925 H   0  0  0  0  0  0  0  0  0  0  0  0
   18.0499   16.1115    2.9573 H   0  0  0  0  0  0  0  0  0  0  0  0
   17.0969   16.9420    5.2219 H   0  0  0  0  0  0  0  0  0  0  0  0
   18.2118   15.5786    7.2009 H   0  0  0  0  0  0  0  0  0  0  0  0
   21.0624   17.8555    2.8483 H   0  0  0  0  0  0  0  0  0  0  0  0
   19.3925   18.2449    3.5287 H   0  0  0  0  0  0  0  0  0  0  0  0
   20.4217   19.3619    5.1299 H   0  0  0  0  0  0  0  0  0  0  0  0
   20.9427   17.7532    5.7658 H   0  0  0  0  0  0  0  0  0  0  0  0
   22.8010   18.2592    3.7542 H   0  0  0  0  0  0  0  0  0  0  0  0
   22.5247   19.8888    4.4766 H   0  0  0  0  0  0  0  0  0  0  0  0
   22.7933   18.6551    6.6791 H   0  0  0  0  0  0  0  0  0  0  0  0
   23.5060   17.4292    5.7746 H   0  0  0  0  0  0  0  0  0  0  0  0
   24.1754   18.9722    5.7746 H   0  0  0  0  0  0  0  0  0  0  0  0
  2  1  1  0
  3  2  1  0
  4  3  1  0
  5  4  1  0
  5  1  1  0
  6  5  1  0
  7  6  2  0
  7  3  1  0
  8  1  1  0
  9  8  1  0
 10  9  1  0
 11 10  1  0
  1 12  1  6
  2 13  1  0
  2 14  1  0
  3 15  1  1
  4 16  1  0
  4 17  1  0
  5 18  1  6
  6 19  1  0
  7 20  1  0
  8 21  1  0
  8 22  1  0
  9 23  1  0
  9 24  1  0
 10 25  1  0
 10 26  1  0
 11 27  1  0
 11 28  1  0
 11 29  1  0
M  CHG  2   1   1  11   1
M  END
$$$$
=
     RDKit          3D

 22 22  0  0  0  0  0  0  0  0999 V2000
   18.5830   14.1680    4.2540 C   0  0  1  0  0  0  0  0  0  0  0  0
   17.1650   14.4340    3.7240 C   0  0  0  0  0  0  0  0  0  0  0  0
   17.3090   13.1320    2.9300 C   0  0  0  0  0  0  0  0  0  0  0  0
   18.7540   13.2030    3.1150 N   0  0  0  0  0  4  0  0  0  0  0  0
   21.5780   16.5550    4.9670 C   0  0  0  0  0  0  0  0  0  0  0  0
   20.5160   15.5720    5.1470 N   0  0  0  0  0  0  0  0  0  0  0  0
   19.6610   15.2910    4.0870 C   0  0  0  0  0  0  0  0  0  0  0  0
   19.7180   15.8950    3.0040 O   0  0  0  0  0  0  0  0  0  0  0  0
   20.4910   14.8980    6.4380 C   0  0  0  0  0  0  0  0  0  0  0  0
   18.6896   13.9480    5.3265 H   0  0  0  0  0  0  0  0  0  0  0  0
   16.3762   14.4220    4.4906 H   0  0  0  0  0  0  0  0  0  0  0  0
   16.8898   15.3842    3.2430 H   0  0  0  0  0  0  0  0  0  0  0  0
   16.8349   12.2592    3.4028 H   0  0  0  0  0  0  0  0  0  0  0  0
   16.8735   13.0336    1.9247 H   0  0  0  0  0  0  0  0  0  0  0  0
   19.1844   12.3078    3.3874 H   0  0  0  0  0  0  0  0  0  0  0  0
   19.3628   13.4473    2.3209 H   0  0  0  0  0  0  0  0  0  0  0  0
   21.9390   16.8891    5.9509 H   0  0  0  0  0  0  0  0  0  0  0  0
   22.4082   16.0996    4.4072 H   0  0  0  0  0  0  0  0  0  0  0  0
   21.1880   17.4178    4.4072 H   0  0  0  0  0  0  0  0  0  0  0  0
   20.5188   15.6469    7.2432 H   0  0  0  0  0  0  0  0  0  0  0  0
   19.5701   14.3023    6.5229 H   0  0  0  0  0  0  0  0  0  0  0  0
   21.3652   14.2358    6.5229 H   0  0  0  0  0  0  0  0  0  0  0  0
  2  1  1  0
  3  2  1  0
  4  3  1  0
  4  1  1  0
  6  5  1  0
  7  6  1  0
  7  1  1  0
  8  7  2  0
  9  6  1  0
  1 10  1  1
  2 11  1  0
  2 12  1  0
  3 13  1  0
  3 14  1  0
  4 15  1  0
  4 16  1  0
  5 17  1  0
  5 18  1  0
  5 19  1  0
  9 20  1  0
  9 21  1  0
  9 22  1  0
M  CHG  1   4   1
M  END
$$$$
=
     RDKit          3D

 34 35  0  0  0  0  0  0  0  0999 V2000
   17.8550   15.3190    3.9500 C   0  0  0  0  0  0  0  0  0  0  0  0
   18.2610   16.2290    3.0870 N   0  0  0  0  0  0  0  0  0  0  0  0
   19.5550   16.6450    3.3350 C   0  0  0  0  0  0  0  0  0  0  0  0
   20.1450   16.0550    4.4420 C   0  0  0  0  0  0  0  0  0  0  0  0
   19.0290   14.9490    5.1510 S   0  0  0  0  0  0  0  0  0  0  0  0
   20.1240   17.6550    2.4000 C   0  0  0  0  0  0  0  0  0  0  0  0
   13.9180   13.5560    3.9430 C   0  0  0  0  0  0  0  0  0  0  0  0
   14.2040   14.6760    4.7190 C   0  0  0  0  0  0  0  0  0  0  0  0
   15.4910   15.2320    4.7030 C   0  0  0  0  0  0  0  0  0  0  0  0
   16.5210   14.6840    3.9170 C   0  0  0  0  0  0  0  0  0  0  0  0
   16.2140   13.5570    3.1400 C   0  0  0  0  0  0  0  0  0  0  0  0
   14.9280   13.0030    3.1560 C   0  0  0  0  0  0  0  0  0  0  0  0
   11.5660   13.7240    3.6340 C   0  0  0  0  0  0  0  0  0  0  0  0
   12.7150   12.9150    3.8630 O   0  0  0  0  0  0  0  0  0  0  0  0
   21.4820   16.2400    5.0830 C   0  0  1  0  0  0  0  0  0  0  0  0
   21.6690   17.5950    5.7550 C   0  0  0  0  0  0  0  0  0  0  0  0
   21.7310   15.1720    6.0880 N   0  0  0  0  0  4  0  0  0  0  0  0
   20.5837   18.4709    2.9771 H   0  0  0  0  0  0  0  0  0  0  0  0
   20.8868   17.1792    1.7662 H   0  0  0  0  0  0  0  0  0  0  0  0
   19.3218   18.0609    1.7662 H   0  0  0  0  0  0  0  0  0  0  0  0
   13.4193   15.1252    5.3454 H   0  0  0  0  0  0  0  0  0  0  0  0
   15.7004   16.1182    5.3200 H   0  0  0  0  0  0  0  0  0  0  0  0
   16.9932   13.1028    2.5103 H   0  0  0  0  0  0  0  0  0  0  0  0
   14.7112   12.1187    2.5388 H   0  0  0  0  0  0  0  0  0  0  0  0
   11.1337   14.0284    4.5986 H   0  0  0  0  0  0  0  0  0  0  0  0
   11.8554   14.6187    3.0632 H   0  0  0  0  0  0  0  0  0  0  0  0
   10.8212   13.1500    3.0632 H   0  0  0  0  0  0  0  0  0  0  0  0
   22.2075   16.1832    4.2581 H   0  0  0  0  0  0  0  0  0  0  0  0
   21.6515   17.4680    6.8475 H   0  0  0  0  0  0  0  0  0  0  0  0
   22.6350   18.0247    5.4513 H   0  0  0  0  0  0  0  0  0  0  0  0
   20.8555   18.2703    5.4513 H   0  0  0  0  0  0  0  0  0  0  0  0
   21.6395   15.5645    7.0359 H   0  0  0  0  0  0  0  0  0  0  0  0
   21.0439   14.4151    5.9620 H   0  0  0  0  0  0  0  0  0  0  0  0
   22.6820   14.7970    5.9620 H   0  0  0  0  0  0  0  0  0  0  0  0
  2  1  2  0
  3  2  1  0
  4  3  2  0
  5  4  1  0
  5  1  1  0
  6  3  1  0
  8  7  2  0
  9  8  1  0
 10  9  2  0
 10  1  1  0
 11 10  1  0
 12 11  2  0
 12  7  1  0
 14 13  1  0
 14  7  1  0
 15  4  1  0
 16 15  1  0
 17 15  1  0
  6 18  1  0
  6 19  1  0
  6 20  1  0
  8 21  1  0
  9 22  1  0
 11 23  1  0
 12 24  1  0
 13 25  1  0
 13 26  1  0
 13 27  1  0
 15 28  1  6
 16 29  1  0
 16 30  1  0
 16 31  1  0
 17 32  1  0
 17 33  1  0
 17 34  1  0
M  CHG  1  17   1
M  END
$$$$
=
     RDKit          3D

 28 29  0  0  0  0  0  0  0  0999 V2000
   17.3560   14.4690    3.9260 C   0  0  0  0  0  0  0  0  0  0  0  0
   16.0230   14.3820    3.4610 C   0  0  0  0  0  0  0  0  0  0  0  0
   15.0200   15.2130    3.9600 C   0  0  0  0  0  0  0  0  0  0  0  0
   15.3170   16.1520    4.9350 C   0  0  0  0  0  0  0  0  0  0  0  0
   16.6200   16.2660    5.4180 C   0  0  0  0  0  0  0  0  0  0  0  0
   17.6510   15.4390    4.9300 C   0  0  0  0  0  0  0  0  0  0  0  0
   18.9720   15.6090    5.4700 N   0  0  0  0  0  0  0  0  0  0  0  0
   19.4710   14.7380    6.3860 N   0  0  0  0  0  0  0  0  0  0  0  0
   20.6950   15.1910    6.6610 C   0  0  0  0  0  0  0  0  0  0  0  0
   21.0200   16.3540    5.9440 C   0  0  0  0  0  0  0  0  0  0  0  0
   19.8940   16.5950    5.1850 C   0  0  0  0  0  0  0  0  0  0  0  0
   22.2790   17.1310    5.9860 C   0  0  0  0  0  0  0  0  0  0  0  0
   18.4260   13.5530    3.3650 C   0  0  0  0  0  0  0  0  0  0  0  0
   17.9540   12.2430    2.8450 N   0  0  0  0  0  4  0  0  0  0  0  0
   15.7714   13.6414    2.6875 H   0  0  0  0  0  0  0  0  0  0  0  0
   13.9920   15.1229    3.5791 H   0  0  0  0  0  0  0  0  0  0  0  0
   14.5253   16.8070    5.3276 H   0  0  0  0  0  0  0  0  0  0  0  0
   16.8466   17.0136    6.1924 H   0  0  0  0  0  0  0  0  0  0  0  0
   21.3775   14.7052    7.3738 H   0  0  0  0  0  0  0  0  0  0  0  0
   19.7555   17.4260    4.4778 H   0  0  0  0  0  0  0  0  0  0  0  0
   22.5659   17.3080    7.0331 H   0  0  0  0  0  0  0  0  0  0  0  0
   23.0751   16.5669    5.4781 H   0  0  0  0  0  0  0  0  0  0  0  0
   22.1317   18.0955    5.4781 H   0  0  0  0  0  0  0  0  0  0  0  0
   18.9243   14.0830    2.5399 H   0  0  0  0  0  0  0  0  0  0  0  0
   19.0873   13.3157    4.2114 H   0  0  0  0  0  0  0  0  0  0  0  0
   17.7298   11.6208    3.6346 H   0  0  0  0  0  0  0  0  0  0  0  0
   17.1114   12.3853    2.2700 H   0  0  0  0  0  0  0  0  0  0  0  0
   18.6938   11.8151    2.2700 H   0  0  0  0  0  0  0  0  0  0  0  0
  2  1  2  0
  3  2  1  0
  4  3  2  0
  5  4  1  0
  6  5  2  0
  6  1  1  0
  7  6  1  0
  8  7  1  0
  9  8  2  0
 10  9  1  0
 11  7  1  0
 11 10  2  0
 12 10  1  0
 13  1  1  0
 14 13  1  0
  2 15  1  0
  3 16  1  0
  4 17  1  0
  5 18  1  0
  9 19  1  0
 11 20  1  0
 12 21  1  0
 12 22  1  0
 12 23  1  0
 13 24  1  0
 13 25  1  0
 14 26  1  0
 14 27  1  0
 14 28  1  0
M  CHG  1  14   1
M  END
$$$$
=
     RDKit          3D

 41 42  0  0  0  0  0  0  0  0999 V2000
   18.0620   14.3810    3.2960 C   0  0  2  0  0  0  0  0  0  0  0  0
   16.5690   14.2230    3.4800 C   0  0  0  0  0  0  0  0  0  0  0  0
   15.8010   15.2000    4.1380 C   0  0  0  0  0  0  0  0  0  0  0  0
   14.4310   15.0140    4.3270 C   0  0  0  0  0  0  0  0  0  0  0  0
   13.8130   13.8510    3.8740 C   0  0  0  0  0  0  0  0  0  0  0  0
   14.5630   12.8700    3.2330 C   0  0  0  0  0  0  0  0  0  0  0  0
   15.9340   13.0490    3.0400 C   0  0  0  0  0  0  0  0  0  0  0  0
   18.6720   13.0180    3.0920 N   0  0  0  0  0  4  0  0  0  0  0  0
   18.7760   15.0490    4.4990 C   0  0  0  0  0  0  0  0  0  0  0  0
   18.8360   14.3780    5.5390 O   0  0  0  0  0  0  0  0  0  0  0  0
   19.3290   16.3200    4.3870 N   0  0  0  0  0  0  0  0  0  0  0  0
   19.1960   17.1490    3.1910 C   0  0  0  0  0  0  0  0  0  0  0  0
   19.8750   16.9280    5.6330 C   0  0  0  0  0  0  0  0  0  0  0  0
   21.0660   16.1950    6.2820 C   0  0  0  0  0  0  0  0  0  0  0  0
   22.4390   16.5690    5.7220 C   0  0  0  0  0  0  0  0  0  0  0  0
   22.6390   18.0760    5.6370 C   0  0  0  0  0  0  0  0  0  0  0  0
   21.5140   18.7500    4.8610 C   0  0  0  0  0  0  0  0  0  0  0  0
   20.1520   18.4360    5.4710 C   0  0  0  0  0  0  0  0  0  0  0  0
   18.2009   15.0402    2.4264 H   0  0  0  0  0  0  0  0  0  0  0  0
   16.2836   16.1173    4.5063 H   0  0  0  0  0  0  0  0  0  0  0  0
   13.8374   15.7882    4.8352 H   0  0  0  0  0  0  0  0  0  0  0  0
   12.7325   13.7081    4.0229 H   0  0  0  0  0  0  0  0  0  0  0  0
   14.0744   11.9509    2.8773 H   0  0  0  0  0  0  0  0  0  0  0  0
   16.5217   12.2652    2.5397 H   0  0  0  0  0  0  0  0  0  0  0  0
   18.8647   12.5875    4.0077 H   0  0  0  0  0  0  0  0  0  0  0  0
   18.0165   12.4239    2.5644 H   0  0  0  0  0  0  0  0  0  0  0  0
   19.5517   13.1110    2.5644 H   0  0  0  0  0  0  0  0  0  0  0  0
   19.0282   18.1951    3.4868 H   0  0  0  0  0  0  0  0  0  0  0  0
   20.1167   17.0802    2.5930 H   0  0  0  0  0  0  0  0  0  0  0  0
   18.3431   16.7957    2.5930 H   0  0  0  0  0  0  0  0  0  0  0  0
   19.0586   16.7961    6.3583 H   0  0  0  0  0  0  0  0  0  0  0  0
   21.0624   16.4243    7.3578 H   0  0  0  0  0  0  0  0  0  0  0  0
   20.9255   15.1264    6.0623 H   0  0  0  0  0  0  0  0  0  0  0  0
   23.2150   16.1458    6.3767 H   0  0  0  0  0  0  0  0  0  0  0  0
   22.5077   16.1630    4.7020 H   0  0  0  0  0  0  0  0  0  0  0  0
   22.6675   18.4900    6.6557 H   0  0  0  0  0  0  0  0  0  0  0  0
   23.5840   18.2676    5.1076 H   0  0  0  0  0  0  0  0  0  0  0  0
   21.6707   19.8387    4.8764 H   0  0  0  0  0  0  0  0  0  0  0  0
   21.5278   18.3684    3.8294 H   0  0  0  0  0  0  0  0  0  0  0  0
   20.0999   18.9067    6.4638 H   0  0  0  0  0  0  0  0  0  0  0  0
   19.3928   18.8284    4.7784 H   0  0  0  0  0  0  0  0  0  0  0  0
  2  1  1  0
  3  2  2  0
  4  3  1  0
  5  4  2  0
  6  5  1  0
  7  6  2  0
  7  2  1  0
  8  1  1  0
  9  1  1  0
 10  9  2  0
 11  9  1  0
 12 11  1  0
 13 11  1  0
 14 13  1  0
 15 14  1  0
 16 15  1  0
 17 16  1  0
 18 17  1  0
 18 13  1  0
  1 19  1  6
  3 20  1  0
  4 21  1  0
  5 22  1  0
  6 23  1  0
  7 24  1  0
  8 25  1  0
  8 26  1  0
  8 27  1  0
 12 28  1  0
 12 29  1  0
 12 30  1  0
 13 31  1  0
 14 32  1  0
 14 33  1  0
 15 34  1  0
 15 35  1  0
 16 36  1  0
 16 37  1  0
 17 38  1  0
 17 39  1  0
 18 40  1  0
 18 41  1  0
M  CHG  1   8   1
M  END
$$$$
=
     RDKit          3D

 61 60  0  0  0  0  0  0  0  0999 V2000
   13.8260   13.2890    4.0000 C   0  0  2  0  0  0  0  0  0  0  0  0
   14.3390   14.5360    3.3090 N   0  0  0  0  0  4  0  0  0  0  0  0
   15.1160   15.5340    4.0860 C   0  0  0  0  0  0  0  0  0  0  0  0
   15.1280   15.1730    5.5660 C   0  0  0  0  0  0  0  0  0  0  0  0
   16.3310   15.8060    6.2720 C   0  0  0  0  0  0  0  0  0  0  0  0
   16.8970   16.9730    5.4600 C   0  0  0  0  0  0  0  0  0  0  0  0
   18.1380   17.6100    6.0940 C   0  0  0  0  0  0  0  0  0  0  0  0
   19.1020   18.0110    3.7640 C   0  0  0  0  0  0  0  0  0  0  0  0
   18.9500   18.5350    5.1830 C   0  0  0  0  0  0  0  0  0  0  0  0
   14.6540   12.0420    3.6850 C   0  0  0  0  0  0  0  0  0  0  0  0
   15.9330   12.3760    2.9530 C   0  0  0  0  0  0  0  0  0  0  0  0
   15.9330   12.5490    1.7360 O   0  0  0  0  0  0  0  0  0  0  0  0
   17.0330   12.5060    3.7570 N   0  0  0  0  0  0  0  0  0  0  0  0
   18.3330   12.8910    3.2300 C   0  0  0  0  0  0  0  0  0  0  0  0
   18.6830   14.3280    3.6140 C   0  0  0  0  0  0  0  0  0  0  0  0
   19.4640   14.4360    4.9270 C   0  0  0  0  0  0  0  0  0  0  0  0
   20.7530   15.2500    4.7970 C   0  0  0  0  0  0  0  0  0  0  0  0
   21.3500   15.6630    6.1470 C   0  0  0  0  0  0  0  0  0  0  0  0
   22.0470   17.0250    6.1810 C   0  0  0  0  0  0  0  0  0  0  0  0
   22.5440   17.4890    4.8210 C   0  0  0  0  0  0  0  0  0  0  0  0
   12.3420   13.1550    3.5990 C   0  0  0  0  0  0  0  0  0  0  0  0
   12.2720   12.1860    2.5440 O   0  0  0  0  0  0  0  0  0  0  0  0
   13.9229   13.3826    5.0917 H   0  0  0  0  0  0  0  0  0  0  0  0
   14.9422   14.2231    2.5350 H   0  0  0  0  0  0  0  0  0  0  0  0
   13.4793   15.0431    3.0546 H   0  0  0  0  0  0  0  0  0  0  0  0
   16.1501   15.5575    3.7116 H   0  0  0  0  0  0  0  0  0  0  0  0
   14.6444   16.5205    3.9663 H   0  0  0  0  0  0  0  0  0  0  0  0
   14.2021   15.5390    6.0337 H   0  0  0  0  0  0  0  0  0  0  0  0
   15.1995   14.0794    5.6610 H   0  0  0  0  0  0  0  0  0  0  0  0
   16.0147   16.1753    7.2587 H   0  0  0  0  0  0  0  0  0  0  0  0
   17.1152   15.0418    6.3775 H   0  0  0  0  0  0  0  0  0  0  0  0
   17.1672   16.6033    4.4598 H   0  0  0  0  0  0  0  0  0  0  0  0
   16.1182   17.7488    5.4200 H   0  0  0  0  0  0  0  0  0  0  0  0
   17.8091   18.1968    6.9644 H   0  0  0  0  0  0  0  0  0  0  0  0
   18.8078   16.7745    6.3457 H   0  0  0  0  0  0  0  0  0  0  0  0
   19.4083   16.9549    3.7940 H   0  0  0  0  0  0  0  0  0  0  0  0
   18.1412   18.0992    3.2357 H   0  0  0  0  0  0  0  0  0  0  0  0
   19.8664   18.5997    3.2357 H   0  0  0  0  0  0  0  0  0  0  0  0
   19.9530   18.6583    5.6175 H   0  0  0  0  0  0  0  0  0  0  0  0
   18.4022   19.4867    5.1186 H   0  0  0  0  0  0  0  0  0  0  0  0
   14.9075   11.5373    4.6290 H   0  0  0  0  0  0  0  0  0  0  0  0
   14.0515   11.3924    3.0330 H   0  0  0  0  0  0  0  0  0  0  0  0
   16.9373   12.3256    4.7666 H   0  0  0  0  0  0  0  0  0  0  0  0
   19.0993   12.2145    3.6364 H   0  0  0  0  0  0  0  0  0  0  0  0
   18.2973   12.8232    2.1327 H   0  0  0  0  0  0  0  0  0  0  0  0
   19.2925   14.7649    2.8093 H   0  0  0  0  0  0  0  0  0  0  0  0
   17.7338   14.8653    3.7567 H   0  0  0  0  0  0  0  0  0  0  0  0
   18.8205   14.9179    5.6778 H   0  0  0  0  0  0  0  0  0  0  0  0
   19.7504   13.4156    5.2216 H   0  0  0  0  0  0  0  0  0  0  0  0
   21.4957   14.6435    4.2580 H   0  0  0  0  0  0  0  0  0  0  0  0
   20.5006   16.1744    4.2567 H   0  0  0  0  0  0  0  0  0  0  0  0
   20.5339   15.6835    6.8843 H   0  0  0  0  0  0  0  0  0  0  0  0
   22.1333   14.9222    6.3652 H   0  0  0  0  0  0  0  0  0  0  0  0
   21.3346   17.7707    6.5638 H   0  0  0  0  0  0  0  0  0  0  0  0
   22.9302   16.9191    6.8281 H   0  0  0  0  0  0  0  0  0  0  0  0
   23.3419   18.2339    4.9568 H   0  0  0  0  0  0  0  0  0  0  0  0
   22.9377   16.6279    4.2612 H   0  0  0  0  0  0  0  0  0  0  0  0
   21.7119   17.9409    4.2612 H   0  0  0  0  0  0  0  0  0  0  0  0
   11.7481   12.8169    4.4609 H   0  0  0  0  0  0  0  0  0  0  0  0
   11.9391   14.1231    3.2665 H   0  0  0  0  0  0  0  0  0  0  0  0
   12.2064   11.2782    2.9335 H   0  0  0  0  0  0  0  0  0  0  0  0
  2  1  1  0
  3  2  1  0
  4  3  1  0
  5  4  1  0
  6  5  1  0
  7  6  1  0
  9  8  1  0
  9  7  1  0
 10  1  1  0
 11 10  1  0
 12 11  2  0
 13 11  1  0
 14 13  1  0
 15 14  1  0
 16 15  1  0
 17 16  1  0
 18 17  1  0
 19 18  1  0
 20 19  1  0
 21  1  1  0
 22 21  1  0
  1 23  1  1
  2 24  1  0
  2 25  1  0
  3 26  1  0
  3 27  1  0
  4 28  1  0
  4 29  1  0
  5 30  1  0
  5 31  1  0
  6 32  1  0
  6 33  1  0
  7 34  1  0
  7 35  1  0
  8 36  1  0
  8 37  1  0
  8 38  1  0
  9 39  1  0
  9 40  1  0
 10 41  1  0
 10 42  1  0
 13 43  1  0
 14 44  1  0
 14 45  1  0
 15 46  1  0
 15 47  1  0
 16 48  1  0
 16 49  1  0
 17 50  1  0
 17 51  1  0
 18 52  1  0
 18 53  1  0
 19 54  1  0
 19 55  1  0
 20 56  1  0
 20 57  1  0
 20 58  1  0
 21 59  1  0
 21 60  1  0
 22 61  1  0
M  CHG  1   2   1
M  END
$$$$
=
     RDKit          3D

 36 38  0  0  0  0  0  0  0  0999 V2000
   28.7180   25.9450   14.3380 N   0  0  0  0  0  0  0  0  0  0  0  0
   28.8120   24.8390   15.1700 C   0  0  0  0  0  0  0  0  0  0  0  0
   29.0690   23.7020   14.7690 O   0  0  0  0  0  0  0  0  0  0  0  0
   28.6900   25.1310   16.6660 C   0  0  1  0  0  0  0  0  0  0  0  0
   30.0840   25.3080   17.2650 C   0  0  0  0  0  0  0  0  0  0  0  0
   27.8690   26.2140   17.0650 O   0  0  0  0  0  0  0  0  0  0  0  0
   27.9040   27.2920   16.2140 C   0  0  0  0  0  0  0  0  0  0  0  0
   28.3190   27.2050   14.8740 C   0  0  0  0  0  0  0  0  0  0  0  0
   28.2860   28.3730   14.1000 C   0  0  0  0  0  0  0  0  0  0  0  0
   27.8330   29.5820   14.6380 C   0  0  0  0  0  0  0  0  0  0  0  0
   27.4070   29.6450   15.9610 C   0  0  0  0  0  0  0  0  0  0  0  0
   27.4710   28.5140   16.7730 C   0  0  0  0  0  0  0  0  0  0  0  0
   26.9190   28.5570   18.0670 N   0  0  0  0  0  0  0  0  0  0  0  0
   28.9690   25.7600   12.9100 C   0  0  0  0  0  0  0  0  0  0  0  0
   24.4540   23.8390   10.1020 F   0  0  0  0  0  0  0  0  0  0  0  0
   25.5260   24.2930   10.7640 C   0  0  0  0  0  0  0  0  0  0  0  0
   26.7230   23.5920   10.6940 C   0  0  0  0  0  0  0  0  0  0  0  0
   27.8400   24.0640   11.3840 C   0  0  0  0  0  0  0  0  0  0  0  0
   27.7680   25.2480   12.1370 C   0  0  0  0  0  0  0  0  0  0  0  0
   26.5390   25.9290   12.2110 C   0  0  0  0  0  0  0  0  0  0  0  0
   25.4230   25.4550   11.5190 C   0  0  0  0  0  0  0  0  0  0  0  0
   28.1617   24.2484   17.0558 H   0  0  0  0  0  0  0  0  0  0  0  0
   30.0152   25.2993   18.3628 H   0  0  0  0  0  0  0  0  0  0  0  0
   30.7335   24.4851   16.9318 H   0  0  0  0  0  0  0  0  0  0  0  0
   30.5072   26.2671   16.9318 H   0  0  0  0  0  0  0  0  0  0  0  0
   28.6216   28.3383   13.0530 H   0  0  0  0  0  0  0  0  0  0  0  0
   27.8135   30.4867   14.0126 H   0  0  0  0  0  0  0  0  0  0  0  0
   27.0184   30.5904   16.3674 H   0  0  0  0  0  0  0  0  0  0  0  0
   26.9622   27.7254   18.6732 H   0  0  0  0  0  0  0  0  0  0  0  0
   26.4718   29.4200   18.4077 H   0  0  0  0  0  0  0  0  0  0  0  0
   29.2691   26.7281   12.4826 H   0  0  0  0  0  0  0  0  0  0  0  0
   29.7562   24.9970   12.8199 H   0  0  0  0  0  0  0  0  0  0  0  0
   26.7900   22.6699   10.0979 H   0  0  0  0  0  0  0  0  0  0  0  0
   28.7857   23.5040   11.3381 H   0  0  0  0  0  0  0  0  0  0  0  0
   26.4568   26.8421   12.8189 H   0  0  0  0  0  0  0  0  0  0  0  0
   24.4679   25.9981   11.5711 H   0  0  0  0  0  0  0  0  0  0  0  0
  2  1  1  0
  3  2  2  0
  4  2  1  0
  5  4  1  0
  6  4  1  0
  7  6  1  0
  8  1  1  0
  8  7  2  0
  9  8  1  0
 10  9  2  0
 11 10  1  0
 12 11  2  0
 12  7  1  0
 13 12  1  0
 14  1  1  0
 16 15  1  0
 17 16  2  0
 18 17  1  0
 19 18  2  0
 19 14  1  0
 20 19  1  0
 21 16  1  0
 21 20  2  0
  4 22  1  1
  5 23  1  0
  5 24  1  0
  5 25  1  0
  9 26  1  0
 10 27  1  0
 11 28  1  0
 13 29  1  0
 13 30  1  0
 14 31  1  0
 14 32  1  0
 17 33  1  0
 18 34  1  0
 20 35  1  0
 21 36  1  0
M  END
$$$$
=
     RDKit          3D

 45 48  0  0  0  0  0  0  0  0999 V2000
   28.0320   25.7880   12.9440 C   0  0  0  0  0  0  0  0  0  0  0  0
   28.9710   25.0440   12.3860 N   0  0  0  0  0  0  0  0  0  0  0  0
   28.3360   23.9540   11.8680 C   0  0  0  0  0  0  0  0  0  0  0  0
   26.9600   24.0270   12.0610 C   0  0  0  0  0  0  0  0  0  0  0  0
   26.7630   25.2330   12.7320 N   0  0  0  0  0  0  0  0  0  0  0  0
   26.0950   23.0450   11.5410 C   0  0  0  0  0  0  0  0  0  0  0  0
   26.6670   21.9550   10.8750 C   0  0  0  0  0  0  0  0  0  0  0  0
   28.0460   21.8530   10.7100 C   0  0  0  0  0  0  0  0  0  0  0  0
   28.8930   22.8530   11.1960 C   0  0  0  0  0  0  0  0  0  0  0  0
   29.3380   28.0720   15.6810 C   0  0  0  0  0  0  0  0  0  0  0  0
   28.9680   29.3140   15.1610 C   0  0  0  0  0  0  0  0  0  0  0  0
   28.2640   29.4020   13.9600 C   0  0  0  0  0  0  0  0  0  0  0  0
   27.9490   28.2440   13.2510 C   0  0  0  0  0  0  0  0  0  0  0  0
   28.3430   26.9890   13.7320 C   0  0  0  0  0  0  0  0  0  0  0  0
   29.0770   26.9230   14.9260 C   0  0  0  0  0  0  0  0  0  0  0  0
   30.1500   27.9960   16.8200 N   0  0  0  0  0  0  0  0  0  0  0  0
   25.5010   25.7920   13.0880 C   0  0  0  0  0  0  0  0  0  0  0  0
   24.5740   26.1270   12.1030 C   0  0  0  0  0  0  0  0  0  0  0  0
   23.3270   26.6640   12.4600 C   0  0  0  0  0  0  0  0  0  0  0  0
   22.9610   26.9020   13.7970 C   0  0  0  0  0  0  0  0  0  0  0  0
   23.9170   26.5400   14.7640 C   0  0  0  0  0  0  0  0  0  0  0  0
   25.1670   26.0000   14.4250 C   0  0  0  0  0  0  0  0  0  0  0  0
   21.7070   27.4190   14.1440 N   0  0  0  0  0  0  0  0  0  0  0  0
   21.2490   27.3060   15.5280 C   0  0  0  0  0  0  0  0  0  0  0  0
   21.1910   28.5700   13.4030 C   0  0  0  0  0  0  0  0  0  0  0  0
   25.0043   23.1318   11.6546 H   0  0  0  0  0  0  0  0  0  0  0  0
   26.0154   21.1644   10.4746 H   0  0  0  0  0  0  0  0  0  0  0  0
   28.4715   20.9798   10.1938 H   0  0  0  0  0  0  0  0  0  0  0  0
   29.9813   22.7790   11.0542 H   0  0  0  0  0  0  0  0  0  0  0  0
   29.2345   30.2327   15.7042 H   0  0  0  0  0  0  0  0  0  0  0  0
   27.9576   30.3849   13.5726 H   0  0  0  0  0  0  0  0  0  0  0  0
   27.3875   28.3163   12.3079 H   0  0  0  0  0  0  0  0  0  0  0  0
   29.4541   25.9504   15.2749 H   0  0  0  0  0  0  0  0  0  0  0  0
   30.4201   27.0774   17.1996 H   0  0  0  0  0  0  0  0  0  0  0  0
   30.4770   28.8588   17.2779 H   0  0  0  0  0  0  0  0  0  0  0  0
   24.8201   25.9702   11.0424 H   0  0  0  0  0  0  0  0  0  0  0  0
   22.6086   26.9080   11.6635 H   0  0  0  0  0  0  0  0  0  0  0  0
   23.6750   26.6860   15.8271 H   0  0  0  0  0  0  0  0  0  0  0  0
   25.8852   25.7402   15.2166 H   0  0  0  0  0  0  0  0  0  0  0  0
   22.0872   27.5128   16.2096 H   0  0  0  0  0  0  0  0  0  0  0  0
   20.4425   28.0321   15.7078 H   0  0  0  0  0  0  0  0  0  0  0  0
   20.8728   26.2881   15.7078 H   0  0  0  0  0  0  0  0  0  0  0  0
   20.8468   29.3378   14.1115 H   0  0  0  0  0  0  0  0  0  0  0  0
   21.9887   28.9862   12.7702 H   0  0  0  0  0  0  0  0  0  0  0  0
   20.3496   28.2514   12.7702 H   0  0  0  0  0  0  0  0  0  0  0  0
  2  1  2  0
  3  2  1  0
  4  3  2  0
  5  4  1  0
  5  1  1  0
  6  4  1  0
  7  6  2  0
  8  7  1  0
  9  8  2  0
  9  3  1  0
 11 10  2  0
 12 11  1  0
 13 12  2  0
 14  1  1  0
 14 13  1  0
 15 14  2  0
 15 10  1  0
 16 10  1  0
 17  5  1  0
 18 17  2  0
 19 18  1  0
 20 19  2  0
 21 20  1  0
 22 21  2  0
 22 17  1  0
 23 20  1  0
 24 23  1  0
 25 23  1  0
  6 26  1  0
  7 27  1  0
  8 28  1  0
  9 29  1  0
 11 30  1  0
 12 31  1  0
 13 32  1  0
 15 33  1  0
 16 34  1  0
 16 35  1  0
 18 36  1  0
 19 37  1  0
 21 38  1  0
 22 39  1  0
 24 40  1  0
 24 41  1  0
 24 42  1  0
 25 43  1  0
 25 44  1  0
 25 45  1  0
M  END
$$$$
=
     RDKit          3D

 50 51  0  0  0  0  0  0  0  0999 V2000
   27.5900   28.2490   16.7690 C   0  0  2  0  0  0  0  0  0  0  0  0
   27.3130   29.2700   15.6650 C   0  0  0  0  0  0  0  0  0  0  0  0
   27.8100   28.5730   14.4040 C   0  0  1  0  0  0  0  0  0  0  0  0
   29.1390   27.9470   14.8740 C   0  0  0  0  0  0  0  0  0  0  0  0
   28.9620   27.6770   16.3670 N   0  0  2  0  0  4  0  0  0  0  0  0
   25.1850   27.8350   17.1570 N   0  0  0  0  0  0  0  0  0  0  0  0
   26.4120   27.2520   16.9020 C   0  0  0  0  0  0  0  0  0  0  0  0
   26.5490   26.0400   16.7700 O   0  0  0  0  0  0  0  0  0  0  0  0
   23.2820   26.7200   16.0840 C   0  0  0  0  0  0  0  0  0  0  0  0
   24.0090   27.0080   17.3820 C   0  0  0  0  0  0  0  0  0  0  0  0
   26.8320   27.6000   13.9230 N   0  0  0  0  0  0  0  0  0  0  0  0
   27.1340   26.8200   12.8170 C   0  0  0  0  0  0  0  0  0  0  0  0
   28.2360   26.8480   12.2830 O   0  0  0  0  0  0  0  0  0  0  0  0
   26.0490   25.9700   12.2860 C   0  0  0  0  0  0  0  0  0  0  0  0
   26.3480   24.8900   11.4590 C   0  0  0  0  0  0  0  0  0  0  0  0
   25.3040   24.1130   10.9560 C   0  0  0  0  0  0  0  0  0  0  0  0
   23.9970   24.4280   11.3070 C   0  0  0  0  0  0  0  0  0  0  0  0
   23.6890   25.4580   12.1150 N   0  0  0  0  0  0  0  0  0  0  0  0
   24.7170   26.1970   12.6000 C   0  0  0  0  0  0  0  0  0  0  0  0
   22.9330   23.7070   10.7850 N   0  0  0  0  0  0  0  0  0  0  0  0
   29.2400   26.2540   16.7620 C   0  0  0  0  0  0  0  0  0  0  0  0
   29.6560   25.3540   15.6330 C   0  0  0  0  0  0  0  0  0  0  0  0
   28.9510   24.4160   14.9770 C   0  0  0  0  0  0  0  0  0  0  0  0
   29.5230   23.5900   13.8640 C   0  0  0  0  0  0  0  0  0  0  0  0
   27.6478   28.6456   17.7934 H   0  0  0  0  0  0  0  0  0  0  0  0
   26.2377   29.4910   15.5944 H   0  0  0  0  0  0  0  0  0  0  0  0
   27.8053   30.2375   15.8425 H   0  0  0  0  0  0  0  0  0  0  0  0
   27.9544   29.2358   13.5381 H   0  0  0  0  0  0  0  0  0  0  0  0
   29.3329   27.0082   14.3346 H   0  0  0  0  0  0  0  0  0  0  0  0
   29.9930   28.6125   14.6797 H   0  0  0  0  0  0  0  0  0  0  0  0
   29.6819   28.1634   16.9202 H   0  0  0  0  0  0  0  0  0  0  0  0
   25.1025   28.8612   17.1880 H   0  0  0  0  0  0  0  0  0  0  0  0
   22.2802   26.3231   16.3051 H   0  0  0  0  0  0  0  0  0  0  0  0
   23.1882   27.6489   15.5023 H   0  0  0  0  0  0  0  0  0  0  0  0
   23.8498   25.9789   15.5023 H   0  0  0  0  0  0  0  0  0  0  0  0
   23.3266   27.5340   18.0659 H   0  0  0  0  0  0  0  0  0  0  0  0
   24.3351   26.0517   17.8169 H   0  0  0  0  0  0  0  0  0  0  0  0
   25.9259   27.4943   14.4013 H   0  0  0  0  0  0  0  0  0  0  0  0
   27.3920   24.6531   11.2061 H   0  0  0  0  0  0  0  0  0  0  0  0
   25.5128   23.2624   10.2905 H   0  0  0  0  0  0  0  0  0  0  0  0
   24.4807   27.0261   13.2833 H   0  0  0  0  0  0  0  0  0  0  0  0
   21.9676   23.9480   11.0512 H   0  0  0  0  0  0  0  0  0  0  0  0
   23.1084   22.9306   10.1312 H   0  0  0  0  0  0  0  0  0  0  0  0
   30.0462   26.2583   17.5104 H   0  0  0  0  0  0  0  0  0  0  0  0
   28.2918   25.8494   17.1458 H   0  0  0  0  0  0  0  0  0  0  0  0
   30.6939   25.4819   15.2918 H   0  0  0  0  0  0  0  0  0  0  0  0
   27.9046   24.2464   15.2708 H   0  0  0  0  0  0  0  0  0  0  0  0
   30.1011   22.7551   14.2868 H   0  0  0  0  0  0  0  0  0  0  0  0
   28.7054   23.1931   13.2444 H   0  0  0  0  0  0  0  0  0  0  0  0
   30.1821   24.2158   13.2444 H   0  0  0  0  0  0  0  0  0  0  0  0
  2  1  1  0
  3  2  1  0
  4  3  1  0
  5  4  1  0
  5  1  1  0
  7  6  1  0
  7  1  1  0
  8  7  2  0
 10  9  1  0
 10  6  1  0
 11  3  1  0
 12 11  1  0
 13 12  2  0
 14 12  1  0
 15 14  2  0
 16 15  1  0
 17 16  2  0
 18 17  1  0
 19 18  2  0
 19 14  1  0
 20 17  1  0
 21  5  1  0
 22 21  1  0
 23 22  2  0
 24 23  1  0
  1 25  1  1
  2 26  1  0
  2 27  1  0
  3 28  1  6
  4 29  1  0
  4 30  1  0
  5 31  1  1
  6 32  1  0
  9 33  1  0
  9 34  1  0
  9 35  1  0
 10 36  1  0
 10 37  1  0
 11 38  1  0
 15 39  1  0
 16 40  1  0
 19 41  1  0
 20 42  1  0
 20 43  1  0
 21 44  1  0
 21 45  1  0
 22 46  1  0
 23 47  1  0
 24 48  1  0
 24 49  1  0
 24 50  1  0
M  CHG  1   5   1
M  END
$$$$
=
     RDKit          3D

 33 34  0  0  0  0  0  0  0  0999 V2000
   21.5240   18.2770    3.5110 C   0  0  0  0  0  0  0  0  0  0  0  0
   21.1780   17.9480    4.9650 C   0  0  2  0  0  0  0  0  0  0  0  0
   21.6570   16.5460    5.3530 C   0  0  0  0  0  0  0  0  0  0  0  0
   20.7600   15.9780    6.4390 C   0  0  0  0  0  0  0  0  0  0  0  0
   19.4430   15.7520    5.9290 O   0  0  0  0  0  0  0  0  0  0  0  0
   18.8330   16.8590    5.2500 C   0  0  0  0  0  0  0  0  0  0  0  0
   19.6830   18.1470    5.2740 C   0  0  0  0  0  0  0  0  0  0  0  0
   17.4970   17.1300    5.9730 C   0  0  0  0  0  0  0  0  0  0  0  0
   16.5700   15.9270    5.9350 C   0  0  0  0  0  0  0  0  0  0  0  0
   16.3380   15.5270    4.5160 N   0  0  0  0  0  4  0  0  0  0  0  0
   17.5960   15.1930    3.7880 C   0  0  0  0  0  0  0  0  0  0  0  0
   18.5390   16.3880    3.8130 C   0  0  0  0  0  0  0  0  0  0  0  0
   21.8740   18.9000    5.7820 O   0  0  0  0  0  0  0  0  0  0  0  0
   22.3210   19.0348    3.4862 H   0  0  0  0  0  0  0  0  0  0  0  0
   21.8688   17.3655    3.0009 H   0  0  0  0  0  0  0  0  0  0  0  0
   20.6310   18.6672    3.0009 H   0  0  0  0  0  0  0  0  0  0  0  0
   21.6215   15.8907    4.4702 H   0  0  0  0  0  0  0  0  0  0  0  0
   22.6890   16.6059    5.7289 H   0  0  0  0  0  0  0  0  0  0  0  0
   21.1796   15.0253    6.7945 H   0  0  0  0  0  0  0  0  0  0  0  0
   20.7032   16.6983    7.2684 H   0  0  0  0  0  0  0  0  0  0  0  0
   19.2702   18.8418    4.5278 H   0  0  0  0  0  0  0  0  0  0  0  0
   19.6311   18.5294    6.3041 H   0  0  0  0  0  0  0  0  0  0  0  0
   17.7071   17.3824    7.0228 H   0  0  0  0  0  0  0  0  0  0  0  0
   16.9947   17.9601    5.4547 H   0  0  0  0  0  0  0  0  0  0  0  0
   17.0305   15.0909    6.4817 H   0  0  0  0  0  0  0  0  0  0  0  0
   15.6104   16.1865    6.4060 H   0  0  0  0  0  0  0  0  0  0  0  0
   15.7237   14.7003    4.5049 H   0  0  0  0  0  0  0  0  0  0  0  0
   15.9107   16.3321    4.0364 H   0  0  0  0  0  0  0  0  0  0  0  0
   18.0820   14.3340    4.2738 H   0  0  0  0  0  0  0  0  0  0  0  0
   17.3559   14.9415    2.7444 H   0  0  0  0  0  0  0  0  0  0  0  0
   19.4862   16.1035    3.3314 H   0  0  0  0  0  0  0  0  0  0  0  0
   18.0535   17.2161    3.2759 H   0  0  0  0  0  0  0  0  0  0  0  0
   21.7204   18.6899    6.7372 H   0  0  0  0  0  0  0  0  0  0  0  0
  2  1  1  0
  3  2  1  0
  4  3  1  0
  5  4  1  0
  6  5  1  0
  7  6  1  0
  7  2  1  0
  8  6  1  0
  9  8  1  0
 10  9  1  0
 11 10  1  0
 12 11  1  0
 12  6  1  0
  2 13  1  1
  1 14  1  0
  1 15  1  0
  1 16  1  0
  3 17  1  0
  3 18  1  0
  4 19  1  0
  4 20  1  0
  7 21  1  0
  7 22  1  0
  8 23  1  0
  8 24  1  0
  9 25  1  0
  9 26  1  0
 10 27  1  0
 10 28  1  0
 11 29  1  0
 11 30  1  0
 12 31  1  0
 12 32  1  0
 13 33  1  0
M  CHG  1  10   1
M  END
$$$$
=
     RDKit          3D

 39 38  0  0  0  0  0  0  0  0999 V2000
   15.0860   15.0200    5.0740 N   0  0  0  0  0  0  0  0  0  0  0  0
   15.0570   14.2840    3.9130 C   0  0  0  0  0  0  0  0  0  0  0  0
   15.7950   14.5200    2.9560 O   0  0  0  0  0  0  0  0  0  0  0  0
   15.8350   16.2650    5.1690 C   0  0  0  0  0  0  0  0  0  0  0  0
   16.9310   16.2270    6.2390 C   0  0  0  0  0  0  0  0  0  0  0  0
   18.3070   16.3980    5.5950 C   0  0  0  0  0  0  0  0  0  0  0  0
   18.9940   14.3380    4.2830 C   0  0  0  0  0  0  0  0  0  0  0  0
   18.4270   15.7310    4.2420 N   0  0  0  0  0  4  0  0  0  0  0  0
   19.0770   16.5780    3.1820 C   0  0  0  0  0  0  0  0  0  0  0  0
   14.0780   13.0830    3.8420 C   0  0  2  0  0  0  0  0  0  0  0  0
   14.6210   12.0700    2.8690 N   0  0  0  0  0  4  0  0  0  0  0  0
   12.6360   13.4840    3.4650 C   0  0  0  0  0  0  0  0  0  0  0  0
   11.7870   13.7800    4.7050 C   0  0  0  0  0  0  0  0  0  0  0  0
   11.9260   12.4490    2.5840 C   0  0  0  0  0  0  0  0  0  0  0  0
   14.5654   14.6826    5.8962 H   0  0  0  0  0  0  0  0  0  0  0  0
   16.3039   16.4667    4.1946 H   0  0  0  0  0  0  0  0  0  0  0  0
   15.1243   17.0543    5.4554 H   0  0  0  0  0  0  0  0  0  0  0  0
   16.7636   17.0415    6.9591 H   0  0  0  0  0  0  0  0  0  0  0  0
   16.8950   15.2556    6.7539 H   0  0  0  0  0  0  0  0  0  0  0  0
   18.5025   17.4734    5.4716 H   0  0  0  0  0  0  0  0  0  0  0  0
   19.0379   15.9148    6.2600 H   0  0  0  0  0  0  0  0  0  0  0  0
   19.1215   14.0247    5.3297 H   0  0  0  0  0  0  0  0  0  0  0  0
   18.3056   13.6468    3.7746 H   0  0  0  0  0  0  0  0  0  0  0  0
   19.9694   14.3240    3.7746 H   0  0  0  0  0  0  0  0  0  0  0  0
   17.4448   15.6261    3.9501 H   0  0  0  0  0  0  0  0  0  0  0  0
   19.6803   17.3641    3.6596 H   0  0  0  0  0  0  0  0  0  0  0  0
   19.7255   15.9478    2.5557 H   0  0  0  0  0  0  0  0  0  0  0  0
   18.3005   17.0414    2.5557 H   0  0  0  0  0  0  0  0  0  0  0  0
   14.0093   12.6511    4.8513 H   0  0  0  0  0  0  0  0  0  0  0  0
   15.0412   11.2860    3.3883 H   0  0  0  0  0  0  0  0  0  0  0  0
   13.8554   11.7182    2.2766 H   0  0  0  0  0  0  0  0  0  0  0  0
   15.3378   12.5129    2.2766 H   0  0  0  0  0  0  0  0  0  0  0  0
   12.7390   14.4037    2.8705 H   0  0  0  0  0  0  0  0  0  0  0  0
   12.3766   13.5745    5.6106 H   0  0  0  0  0  0  0  0  0  0  0  0
   11.4830   14.8371    4.6974 H   0  0  0  0  0  0  0  0  0  0  0  0
   10.8917   13.1410    4.6974 H   0  0  0  0  0  0  0  0  0  0  0  0
   11.4192   11.7102    3.2222 H   0  0  0  0  0  0  0  0  0  0  0  0
   11.1841   12.9553    1.9489 H   0  0  0  0  0  0  0  0  0  0  0  0
   12.6654   11.9391    1.9489 H   0  0  0  0  0  0  0  0  0  0  0  0
  2  1  1  0
  3  2  2  0
  4  1  1  0
  5  4  1  0
  6  5  1  0
  8  7  1  0
  8  6  1  0
  9  8  1  0
 10  2  1  0
 11 10  1  0
 12 10  1  0
 13 12  1  0
 14 12  1  0
  1 15  1  0
  4 16  1  0
  4 17  1  0
  5 18  1  0
  5 19  1  0
  6 20  1  0
  6 21  1  0
  7 22  1  0
  7 23  1  0
  7 24  1  0
  8 25  1  0
  9 26  1  0
  9 27  1  0
  9 28  1  0
 10 29  1  1
 11 30  1  0
 11 31  1  0
 11 32  1  0
 12 33  1  0
 13 34  1  0
 13 35  1  0
 13 36  1  0
 14 37  1  0
 14 38  1  0
 14 39  1  0
M  CHG  2   8   1  11   1
M  END
$$$$
=
     RDKit          3D

 33 34  0  0  0  0  0  0  0  0999 V2000
   13.9740   14.6820    4.1830 C   0  0  0  0  0  0  0  0  0  0  0  0
   14.7540   15.6810    4.7660 C   0  0  0  0  0  0  0  0  0  0  0  0
   16.1410   15.6740    4.5940 C   0  0  0  0  0  0  0  0  0  0  0  0
   16.7660   14.6830    3.8230 C   0  0  0  0  0  0  0  0  0  0  0  0
   15.9840   13.6070    3.3410 C   0  0  0  0  0  0  0  0  0  0  0  0
   14.5900   13.6570    3.4600 C   0  0  0  0  0  0  0  0  0  0  0  0
   16.5460   12.5780    2.5530 N   0  0  0  0  0  0  0  0  0  0  0  0
   11.3940   14.7150    4.4460 N   0  0  0  0  0  0  0  0  0  0  0  0
   12.5490   14.7010    4.3320 C   0  0  0  0  0  0  0  0  0  0  0  0
   18.1770   14.6670    3.6410 N   0  0  0  0  0  0  0  0  0  0  0  0
   19.0790   15.7360    3.8890 C   0  0  0  0  0  0  0  0  0  0  0  0
   19.3270   16.7170    2.9190 C   0  0  0  0  0  0  0  0  0  0  0  0
   20.2880   17.7080    3.1270 C   0  0  0  0  0  0  0  0  0  0  0  0
   21.0530   17.7150    4.2960 C   0  0  0  0  0  0  0  0  0  0  0  0
   20.8290   16.7240    5.2590 C   0  0  0  0  0  0  0  0  0  0  0  0
   19.8630   15.7230    5.0590 C   0  0  0  0  0  0  0  0  0  0  0  0
   19.6620   14.6660    6.1110 C   0  0  0  0  0  0  0  0  0  0  0  0
   22.0620   18.7980    4.5400 C   0  0  0  0  0  0  0  0  0  0  0  0
   14.2775   16.4741    5.3610 H   0  0  0  0  0  0  0  0  0  0  0  0
   16.7507   16.4563    5.0697 H   0  0  0  0  0  0  0  0  0  0  0  0
   13.9739   12.8824    2.9800 H   0  0  0  0  0  0  0  0  0  0  0  0
   15.9536   11.8062    2.2151 H   0  0  0  0  0  0  0  0  0  0  0  0
   17.5482   12.5996    2.3163 H   0  0  0  0  0  0  0  0  0  0  0  0
   18.5873   13.7886    3.2931 H   0  0  0  0  0  0  0  0  0  0  0  0
   18.7555   16.7058    1.9792 H   0  0  0  0  0  0  0  0  0  0  0  0
   20.4437   18.4874    2.3665 H   0  0  0  0  0  0  0  0  0  0  0  0
   21.4188   16.7288    6.1875 H   0  0  0  0  0  0  0  0  0  0  0  0
   19.7485   15.1207    7.1089 H   0  0  0  0  0  0  0  0  0  0  0  0
   18.6630   14.2201    5.9966 H   0  0  0  0  0  0  0  0  0  0  0  0
   20.4276   13.8845    5.9966 H   0  0  0  0  0  0  0  0  0  0  0  0
   22.1936   18.9393    5.6229 H   0  0  0  0  0  0  0  0  0  0  0  0
   23.0232   18.5122    4.0880 H   0  0  0  0  0  0  0  0  0  0  0  0
   21.7090   19.7367    4.0880 H   0  0  0  0  0  0  0  0  0  0  0  0
  2  1  2  0
  3  2  1  0
  4  3  2  0
  5  4  1  0
  6  5  2  0
  6  1  1  0
  7  5  1  0
  9  8  3  0
  9  1  1  0
 10  4  1  0
 11 10  1  0
 12 11  2  0
 13 12  1  0
 14 13  2  0
 15 14  1  0
 16 11  1  0
 16 15  2  0
 17 16  1  0
 18 14  1  0
  2 19  1  0
  3 20  1  0
  6 21  1  0
  7 22  1  0
  7 23  1  0
 10 24  1  0
 12 25  1  0
 13 26  1  0
 15 27  1  0
 17 28  1  0
 17 29  1  0
 17 30  1  0
 18 31  1  0
 18 32  1  0
 18 33  1  0
M  END
$$$$
=
     RDKit          3D

 28 28  0  0  0  0  0  0  0  0999 V2000
   17.1880   13.4510    3.1820 C   0  0  0  0  0  0  0  0  0  0  0  0
   16.1040   12.5700    3.1860 C   0  0  0  0  0  0  0  0  0  0  0  0
   14.8160   13.0000    3.5560 C   0  0  0  0  0  0  0  0  0  0  0  0
   13.6730   12.0230    3.4980 C   0  0  0  0  0  0  0  0  0  0  0  0
   14.6160   14.3380    3.9550 C   0  0  0  0  0  0  0  0  0  0  0  0
   15.7180   15.2020    4.0310 C   0  0  0  0  0  0  0  0  0  0  0  0
   16.9900   14.7460    3.6880 C   0  0  0  0  0  0  0  0  0  0  0  0
   13.2550   14.8510    4.3420 C   0  0  0  0  0  0  0  0  0  0  0  0
   18.4860   12.9800    2.8770 N   0  0  0  0  0  0  0  0  0  0  0  0
   18.1130   15.6380    3.8260 N   0  0  0  0  0  0  0  0  0  0  0  0
   18.8300   15.5960    5.3650 S   0  0  0  0  0  6  0  0  0  0  0  0
   17.8280   16.1010    6.2830 O   0  0  0  0  0  0  0  0  0  0  0  0
   19.4870   14.3260    5.5720 O   0  0  0  0  0  0  0  0  0  0  0  0
   20.0870   16.8370    5.1600 C   0  0  0  0  0  0  0  0  0  0  0  0
   16.2599   11.5208    2.8946 H   0  0  0  0  0  0  0  0  0  0  0  0
   13.3641   11.7590    4.5202 H   0  0  0  0  0  0  0  0  0  0  0  0
   12.8261   12.4806    2.9657 H   0  0  0  0  0  0  0  0  0  0  0  0
   13.9932   11.1152    2.9657 H   0  0  0  0  0  0  0  0  0  0  0  0
   15.5784   16.2417    4.3620 H   0  0  0  0  0  0  0  0  0  0  0  0
   13.1730   14.8819    5.4385 H   0  0  0  0  0  0  0  0  0  0  0  0
   13.1154   15.8634    3.9352 H   0  0  0  0  0  0  0  0  0  0  0  0
   12.4819   14.1826    3.9352 H   0  0  0  0  0  0  0  0  0  0  0  0
   19.2832   13.6322    2.8749 H   0  0  0  0  0  0  0  0  0  0  0  0
   18.6342   11.9848    2.6569 H   0  0  0  0  0  0  0  0  0  0  0  0
   18.4491   16.2437    3.0637 H   0  0  0  0  0  0  0  0  0  0  0  0
   20.4313   17.1769    6.1479 H   0  0  0  0  0  0  0  0  0  0  0  0
   20.9347   16.4118    4.6026 H   0  0  0  0  0  0  0  0  0  0  0  0
   19.6726   17.6900    4.6026 H   0  0  0  0  0  0  0  0  0  0  0  0
  2  1  2  0
  3  2  1  0
  4  3  1  0
  5  3  2  0
  6  5  1  0
  7  6  2  0
  7  1  1  0
  8  5  1  0
  9  1  1  0
 10  7  1  0
 11 10  1  0
 12 11  2  0
 13 11  2  0
 14 11  1  0
  2 15  1  0
  4 16  1  0
  4 17  1  0
  4 18  1  0
  6 19  1  0
  8 20  1  0
  8 21  1  0
  8 22  1  0
  9 23  1  0
  9 24  1  0
 10 25  1  0
 14 26  1  0
 14 27  1  0
 14 28  1  0
M  END
$$$$
=
     RDKit          3D

 44 46  0  0  0  0  0  0  0  0999 V2000
   17.2760   13.5850    4.1940 C   0  0  2  0  0  0  0  0  0  0  0  0
   18.0170   12.9010    2.9930 C   0  0  2  0  0  0  0  0  0  0  0  0
   16.6190   12.8190    2.3430 C   0  0  0  0  0  0  0  0  0  0  0  0
   16.2120   12.2700    1.3470 O   0  0  0  0  0  0  0  0  0  0  0  0
   16.0550   13.4710    3.3860 N   0  0  0  0  0  0  0  0  0  0  0  0
   14.7200   13.6900    3.7300 C   0  0  0  0  0  0  0  0  0  0  0  0
   14.2590   14.9760    4.0240 C   0  0  0  0  0  0  0  0  0  0  0  0
   12.9200   15.1900    4.3680 C   0  0  0  0  0  0  0  0  0  0  0  0
   12.0240   14.1200    4.4390 C   0  0  0  0  0  0  0  0  0  0  0  0
   12.4820   12.8360    4.1350 C   0  0  0  0  0  0  0  0  0  0  0  0
   13.8210   12.6210    3.7890 C   0  0  0  0  0  0  0  0  0  0  0  0
   10.5820   14.3550    4.7800 C   0  0  0  0  0  0  0  0  0  0  0  0
   19.2870   16.9490    4.1190 C   0  0  0  0  0  0  0  0  0  0  0  0
   18.7960   15.6630    3.8280 C   0  0  0  0  0  0  0  0  0  0  0  0
   17.8040   15.0240    4.5940 C   0  0  0  0  0  0  0  0  0  0  0  0
   17.3220   15.7540    5.6930 C   0  0  0  0  0  0  0  0  0  0  0  0
   17.7920   17.0400    5.9960 C   0  0  0  0  0  0  0  0  0  0  0  0
   18.7700   17.6580    5.2110 C   0  0  0  0  0  0  0  0  0  0  0  0
   19.8420   17.5030    1.8550 C   0  0  0  0  0  0  0  0  0  0  0  0
   20.2360   17.3500    3.2130 O   0  0  0  0  0  0  0  0  0  0  0  0
   19.2270   18.9260    5.4360 O   0  0  0  0  0  0  0  0  0  0  0  0
   20.5670   19.0950    5.8810 C   0  0  0  0  0  0  0  0  0  0  0  0
   18.5430   11.5260    3.2340 N   0  0  0  0  0  4  0  0  0  0  0  0
   17.3008   13.2025    5.2250 H   0  0  0  0  0  0  0  0  0  0  0  0
   18.9093   13.3697    2.5524 H   0  0  0  0  0  0  0  0  0  0  0  0
   14.9548   15.8271    3.9846 H   0  0  0  0  0  0  0  0  0  0  0  0
   12.5692   16.2098    4.5846 H   0  0  0  0  0  0  0  0  0  0  0  0
   11.7842   11.9863    4.1678 H   0  0  0  0  0  0  0  0  0  0  0  0
   14.1689   11.6025    3.5616 H   0  0  0  0  0  0  0  0  0  0  0  0
   10.4622   14.3745    5.8733 H   0  0  0  0  0  0  0  0  0  0  0  0
   10.2577   15.3178    4.3584 H   0  0  0  0  0  0  0  0  0  0  0  0
    9.9688   13.5449    4.3584 H   0  0  0  0  0  0  0  0  0  0  0  0
   19.2083   15.1307    2.9582 H   0  0  0  0  0  0  0  0  0  0  0  0
   16.5519   15.3029    6.3360 H   0  0  0  0  0  0  0  0  0  0  0  0
   17.3836   17.5725    6.8676 H   0  0  0  0  0  0  0  0  0  0  0  0
   18.8173   17.9009    1.8131 H   0  0  0  0  0  0  0  0  0  0  0  0
   20.5271   18.2005    1.3508 H   0  0  0  0  0  0  0  0  0  0  0  0
   19.8768   16.5260    1.3508 H   0  0  0  0  0  0  0  0  0  0  0  0
   20.5905   19.0980    6.9807 H   0  0  0  0  0  0  0  0  0  0  0  0
   21.1859   18.2678    5.5032 H   0  0  0  0  0  0  0  0  0  0  0  0
   20.9611   20.0500    5.5032 H   0  0  0  0  0  0  0  0  0  0  0  0
   18.6080   11.3561    4.2478 H   0  0  0  0  0  0  0  0  0  0  0  0
   17.9066   10.8358    2.8103 H   0  0  0  0  0  0  0  0  0  0  0  0
   19.4776   11.4368    2.8103 H   0  0  0  0  0  0  0  0  0  0  0  0
  2  1  1  0
  3  2  1  0
  4  3  2  0
  5  3  1  0
  5  1  1  0
  6  5  1  0
  7  6  2  0
  8  7  1  0
  9  8  2  0
 10  9  1  0
 11 10  2  0
 11  6  1  0
 12  9  1  0
 14 13  2  0
 15 14  1  0
 15  1  1  0
 16 15  2  0
 17 16  1  0
 18 13  1  0
 18 17  2  0
 20 19  1  0
 20 13  1  0
 21 18  1  0
 22 21  1  0
 23  2  1  0
  1 24  1  1
  2 25  1  6
  7 26  1  0
  8 27  1  0
 10 28  1  0
 11 29  1  0
 12 30  1  0
 12 31  1  0
 12 32  1  0
 14 33  1  0
 16 34  1  0
 17 35  1  0
 19 36  1  0
 19 37  1  0
 19 38  1  0
 22 39  1  0
 22 40  1  0
 22 41  1  0
 23 42  1  0
 23 43  1  0
 23 44  1  0
M  CHG  1  23   1
M  END
$$$$
=
     RDKit          3D

 26 27  0  0  0  0  0  0  0  0999 V2000
   23.8080   18.6330    5.3820 O   0  0  0  0  0  0  0  0  0  0  0  0
   22.7530   18.0700    5.1270 C   0  0  0  0  0  0  0  0  0  0  0  0
   21.8820   18.4150    3.9410 C   0  0  0  0  0  0  0  0  0  0  0  0
   20.3890   18.3140    4.2620 C   0  0  0  0  0  0  0  0  0  0  0  0
   20.0080   17.0840    5.1110 C   0  0  2  0  0  0  0  0  0  0  0  0
   21.2090   16.1940    5.4450 C   0  0  1  0  0  0  0  0  0  0  0  0
   22.3120   17.0130    5.8830 N   0  0  0  0  0  0  0  0  0  0  0  0
   20.8340   15.1270    6.4810 C   0  0  0  0  0  0  0  0  0  0  0  0
   19.3530   14.7690    6.4590 C   0  0  0  0  0  0  0  0  0  0  0  0
   18.8210   14.8820    5.0700 N   0  0  0  0  0  4  0  0  0  0  0  0
   18.8930   16.2550    4.4690 C   0  0  0  0  0  0  0  0  0  0  0  0
   22.1064   19.4448    3.6261 H   0  0  0  0  0  0  0  0  0  0  0  0
   22.1022   17.6912    3.1425 H   0  0  0  0  0  0  0  0  0  0  0  0
   20.0923   19.2189    4.8126 H   0  0  0  0  0  0  0  0  0  0  0  0
   19.8647   18.2099    3.3006 H   0  0  0  0  0  0  0  0  0  0  0  0
   19.6268   17.4936    6.0580 H   0  0  0  0  0  0  0  0  0  0  0  0
   21.5228   15.6545    4.5392 H   0  0  0  0  0  0  0  0  0  0  0  0
   22.7764   16.8013    6.7777 H   0  0  0  0  0  0  0  0  0  0  0  0
   21.4174   14.2176    6.2743 H   0  0  0  0  0  0  0  0  0  0  0  0
   21.0572   15.5415    7.4752 H   0  0  0  0  0  0  0  0  0  0  0  0
   19.2225   13.7368    6.8161 H   0  0  0  0  0  0  0  0  0  0  0  0
   18.8043   15.4625    7.1132 H   0  0  0  0  0  0  0  0  0  0  0  0
   19.3601   14.2423    4.4691 H   0  0  0  0  0  0  0  0  0  0  0  0
   17.8199   14.6466    5.1269 H   0  0  0  0  0  0  0  0  0  0  0  0
   19.0892   16.1644    3.3904 H   0  0  0  0  0  0  0  0  0  0  0  0
   17.9343   16.7637    4.6482 H   0  0  0  0  0  0  0  0  0  0  0  0
  2  1  2  0
  3  2  1  0
  4  3  1  0
  5  4  1  0
  6  5  1  0
  7  6  1  0
  7  2  1  0
  8  6  1  0
  9  8  1  0
 10  9  1  0
 11 10  1  0
 11  5  1  0
  3 12  1  0
  3 13  1  0
  4 14  1  0
  4 15  1  0
  5 16  1  1
  6 17  1  6
  7 18  1  0
  8 19  1  0
  8 20  1  0
  9 21  1  0
  9 22  1  0
 10 23  1  0
 10 24  1  0
 11 25  1  0
 11 26  1  0
M  CHG  1  10   1
M  END
$$$$
=
     RDKit          3D

 27 27  0  0  0  0  0  0  0  0999 V2000
   13.0220   14.2050    4.6110 C   0  0  0  0  0  0  0  0  0  0  0  0
   14.4710   14.5560    4.4290 C   0  0  0  0  0  0  0  0  0  0  0  0
   15.2230   13.9610    3.4170 C   0  0  0  0  0  0  0  0  0  0  0  0
   16.5750   14.2730    3.2650 C   0  0  0  0  0  0  0  0  0  0  0  0
   17.2170   15.1890    4.1240 C   0  0  0  0  0  0  0  0  0  0  0  0
   16.4620   15.7700    5.1700 C   0  0  0  0  0  0  0  0  0  0  0  0
   15.0990   15.4460    5.3040 C   0  0  0  0  0  0  0  0  0  0  0  0
   17.0500   16.7570    6.1470 C   0  0  0  0  0  0  0  0  0  0  0  0
   18.6960   15.4720    3.9650 C   0  0  2  0  0  0  0  0  0  0  0  0
   19.0430   16.6770    3.0920 C   0  0  0  0  0  0  0  0  0  0  0  0
   19.3710   14.2740    3.3970 N   0  0  0  0  0  4  0  0  0  0  0  0
   12.7904   14.1489    5.6849 H   0  0  0  0  0  0  0  0  0  0  0  0
   12.3957   14.9774    4.1407 H   0  0  0  0  0  0  0  0  0  0  0  0
   12.8186   13.2316    4.1407 H   0  0  0  0  0  0  0  0  0  0  0  0
   14.7480   13.2413    2.7341 H   0  0  0  0  0  0  0  0  0  0  0  0
   17.1512   13.7949    2.4592 H   0  0  0  0  0  0  0  0  0  0  0  0
   14.5149   15.9038    6.1160 H   0  0  0  0  0  0  0  0  0  0  0  0
   16.8491   16.4198    7.1746 H   0  0  0  0  0  0  0  0  0  0  0  0
   18.1365   16.8259    5.9895 H   0  0  0  0  0  0  0  0  0  0  0  0
   16.5933   17.7452    5.9895 H   0  0  0  0  0  0  0  0  0  0  0  0
   19.0494   15.7150    4.9779 H   0  0  0  0  0  0  0  0  0  0  0  0
   19.2902   17.5356    3.7336 H   0  0  0  0  0  0  0  0  0  0  0  0
   19.9074   16.4329    2.4569 H   0  0  0  0  0  0  0  0  0  0  0  0
   18.1812   16.9300    2.4569 H   0  0  0  0  0  0  0  0  0  0  0  0
   19.7088   13.6745    4.1635 H   0  0  0  0  0  0  0  0  0  0  0  0
   18.7031   13.7462    2.8172 H   0  0  0  0  0  0  0  0  0  0  0  0
   20.1685   14.5719    2.8172 H   0  0  0  0  0  0  0  0  0  0  0  0
  2  1  1  0
  3  2  2  0
  4  3  1  0
  5  4  2  0
  6  5  1  0
  7  2  1  0
  7  6  2  0
  8  6  1  0
  9  5  1  0
 10  9  1  0
 11  9  1  0
  1 12  1  0
  1 13  1  0
  1 14  1  0
  3 15  1  0
  4 16  1  0
  7 17  1  0
  8 18  1  0
  8 19  1  0
  8 20  1  0
  9 21  1  1
 10 22  1  0
 10 23  1  0
 10 24  1  0
 11 25  1  0
 11 26  1  0
 11 27  1  0
M  CHG  1  11   1
M  END
$$$$
=
     RDKit          3D

 41 42  0  0  0  0  0  0  0  0999 V2000
   16.8410   14.2650    3.5230 C   0  0  0  0  0  0  0  0  0  0  0  0
   18.1040   13.7140    3.4130 C   0  0  0  0  0  0  0  0  0  0  0  0
   19.1280   14.1870    4.2310 C   0  0  0  0  0  0  0  0  0  0  0  0
   18.8770   15.2090    5.1630 C   0  0  0  0  0  0  0  0  0  0  0  0
   17.5730   15.7250    5.1910 C   0  0  0  0  0  0  0  0  0  0  0  0
   16.5810   15.2470    4.4000 N   0  0  0  0  0  0  0  0  0  0  0  0
   17.1540   16.8430    6.1040 C   0  0  0  0  0  0  0  0  0  0  0  0
   15.7550   13.8130    2.7840 N   0  0  0  0  0  0  0  0  0  0  0  0
   15.2490   12.4930    3.1600 C   0  0  0  0  0  0  0  0  0  0  0  0
   13.2010   13.8040    3.9240 C   0  0  0  0  0  0  0  0  0  0  0  0
   13.7240   12.5240    3.2860 C   0  0  0  0  0  0  0  0  0  0  0  0
   19.9530   15.7410    6.0890 C   0  0  2  0  0  0  0  0  0  0  0  0
   20.8300   16.8280    5.4980 C   0  0  0  0  0  0  0  0  0  0  0  0
   20.4830   17.5060    4.3170 C   0  0  0  0  0  0  0  0  0  0  0  0
   21.3370   18.4680    3.7720 C   0  0  0  0  0  0  0  0  0  0  0  0
   22.5480   18.7590    4.3920 C   0  0  0  0  0  0  0  0  0  0  0  0
   22.9120   18.0930    5.5580 C   0  0  0  0  0  0  0  0  0  0  0  0
   22.0630   17.1310    6.1080 C   0  0  0  0  0  0  0  0  0  0  0  0
   20.8250   14.6740    6.6580 N   0  0  0  0  0  4  0  0  0  0  0  0
   18.2986   12.9106    2.6873 H   0  0  0  0  0  0  0  0  0  0  0  0
   20.1377   13.7586    4.1471 H   0  0  0  0  0  0  0  0  0  0  0  0
   17.2729   16.5258    7.1506 H   0  0  0  0  0  0  0  0  0  0  0  0
   17.7823   17.7259    5.9148 H   0  0  0  0  0  0  0  0  0  0  0  0
   16.1002   17.0955    5.9148 H   0  0  0  0  0  0  0  0  0  0  0  0
   15.3355   14.3683    2.0247 H   0  0  0  0  0  0  0  0  0  0  0  0
   15.5345   11.7620    2.3892 H   0  0  0  0  0  0  0  0  0  0  0  0
   15.6821   12.2071    4.1299 H   0  0  0  0  0  0  0  0  0  0  0  0
   13.2394   13.7100    5.0193 H   0  0  0  0  0  0  0  0  0  0  0  0
   13.8243   14.6530    3.6068 H   0  0  0  0  0  0  0  0  0  0  0  0
   12.1615   13.9736    3.6068 H   0  0  0  0  0  0  0  0  0  0  0  0
   13.4067   11.6707    3.9034 H   0  0  0  0  0  0  0  0  0  0  0  0
   13.3106   12.4735    2.2679 H   0  0  0  0  0  0  0  0  0  0  0  0
   19.3615   16.1974    6.8963 H   0  0  0  0  0  0  0  0  0  0  0  0
   19.5302   17.2772    3.8171 H   0  0  0  0  0  0  0  0  0  0  0  0
   21.0513   18.9966    2.8506 H   0  0  0  0  0  0  0  0  0  0  0  0
   23.2184   19.5165    3.9598 H   0  0  0  0  0  0  0  0  0  0  0  0
   23.8697   18.3247    6.0470 H   0  0  0  0  0  0  0  0  0  0  0  0
   22.3598   16.6043    7.0270 H   0  0  0  0  0  0  0  0  0  0  0  0
   20.7913   14.7153    7.6866 H   0  0  0  0  0  0  0  0  0  0  0  0
   20.4919   13.7526    6.3402 H   0  0  0  0  0  0  0  0  0  0  0  0
   21.7943   14.8170    6.3402 H   0  0  0  0  0  0  0  0  0  0  0  0
  2  1  2  0
  3  2  1  0
  4  3  2  0
  5  4  1  0
  6  5  2  0
  6  1  1  0
  7  5  1  0
  8  1  1  0
  9  8  1  0
 11 10  1  0
 11  9  1  0
 12  4  1  0
 13 12  1  0
 14 13  2  0
 15 14  1  0
 16 15  2  0
 17 16  1  0
 18 13  1  0
 18 17  2  0
 19 12  1  0
  2 20  1  0
  3 21  1  0
  7 22  1  0
  7 23  1  0
  7 24  1  0
  8 25  1  0
  9 26  1  0
  9 27  1  0
 10 28  1  0
 10 29  1  0
 10 30  1  0
 11 31  1  0
 11 32  1  0
 12 33  1  1
 14 34  1  0
 15 35  1  0
 16 36  1  0
 17 37  1  0
 18 38  1  0
 19 39  1  0
 19 40  1  0
 19 41  1  0
M  CHG  1  19   1
M  END
$$$$
=
     RDKit          3D

 34 36  0  0  0  0  0  0  0  0999 V2000
   19.9750   15.9910    4.4280 C   0  0  0  0  0  0  0  0  0  0  0  0
   19.6220   14.8710    3.8390 N   0  0  0  0  0  0  0  0  0  0  0  0
   18.3380   14.6160    4.2690 N   0  0  0  0  0  0  0  0  0  0  0  0
   18.0010   15.5910    5.0930 C   0  0  0  0  0  0  0  0  0  0  0  0
   19.0040   16.5210    5.2210 O   0  0  0  0  0  0  0  0  0  0  0  0
   22.6000   18.0050    5.9180 C   0  0  0  0  0  0  0  0  0  0  0  0
   22.3860   18.7900    4.6410 C   0  0  0  0  0  0  0  0  0  0  0  0
   21.1010   18.2050    4.0850 C   0  0  0  0  0  0  0  0  0  0  0  0
   21.2670   16.7070    4.3130 C   0  0  1  0  0  0  0  0  0  0  0  0
   22.0870   16.6390    5.5970 N   0  0  0  0  0  4  0  0  0  0  0  0
   16.4890   15.7280    5.9210 S   0  0  0  0  0  0  0  0  0  0  0  0
   15.3730   16.0360    4.5210 C   0  0  0  0  0  0  0  0  0  0  0  0
   14.5920   14.8090    4.1100 C   0  0  0  0  0  0  0  0  0  0  0  0
   15.2020   13.7890    3.3640 C   0  0  0  0  0  0  0  0  0  0  0  0
   14.4770   12.6600    2.9820 C   0  0  0  0  0  0  0  0  0  0  0  0
   13.1360   12.5360    3.3410 C   0  0  0  0  0  0  0  0  0  0  0  0
   12.5190   13.5400    4.0830 C   0  0  0  0  0  0  0  0  0  0  0  0
   13.2410   14.6720    4.4650 C   0  0  0  0  0  0  0  0  0  0  0  0
   23.6677   17.9694    6.1801 H   0  0  0  0  0  0  0  0  0  0  0  0
   22.0884   18.4558    6.7812 H   0  0  0  0  0  0  0  0  0  0  0  0
   22.2715   19.8634    4.8524 H   0  0  0  0  0  0  0  0  0  0  0  0
   23.2319   18.7149    3.9418 H   0  0  0  0  0  0  0  0  0  0  0  0
   20.2256   18.5911    4.6278 H   0  0  0  0  0  0  0  0  0  0  0  0
   20.9337   18.4626    3.0288 H   0  0  0  0  0  0  0  0  0  0  0  0
   21.7555   16.2057    3.4644 H   0  0  0  0  0  0  0  0  0  0  0  0
   21.4934   16.3027    6.3687 H   0  0  0  0  0  0  0  0  0  0  0  0
   22.8773   15.9905    5.4718 H   0  0  0  0  0  0  0  0  0  0  0  0
   14.6619   16.8254    4.8061 H   0  0  0  0  0  0  0  0  0  0  0  0
   15.9940   16.3344    3.6635 H   0  0  0  0  0  0  0  0  0  0  0  0
   16.2603   13.8803    3.0781 H   0  0  0  0  0  0  0  0  0  0  0  0
   14.9644   11.8665    2.3966 H   0  0  0  0  0  0  0  0  0  0  0  0
   12.5653   11.6456    3.0384 H   0  0  0  0  0  0  0  0  0  0  0  0
   11.4613   13.4409    4.3685 H   0  0  0  0  0  0  0  0  0  0  0  0
   12.7473   15.4628    5.0488 H   0  0  0  0  0  0  0  0  0  0  0  0
  2  1  2  0
  3  2  1  0
  4  3  2  0
  5  4  1  0
  5  1  1  0
  7  6  1  0
  8  7  1  0
  9  1  1  0
  9  8  1  0
 10  9  1  0
 10  6  1  0
 11  4  1  0
 12 11  1  0
 13 12  1  0
 14 13  2  0
 15 14  1  0
 16 15  2  0
 17 16  1  0
 18 17  2  0
 18 13  1  0
  6 19  1  0
  6 20  1  0
  7 21  1  0
  7 22  1  0
  8 23  1  0
  8 24  1  0
  9 25  1  6
 10 26  1  0
 10 27  1  0
 12 28  1  0
 12 29  1  0
 14 30  1  0
 15 31  1  0
 16 32  1  0
 17 33  1  0
 18 34  1  0
M  CHG  1  10   1
M  END
$$$$
=
     RDKit          3D

 21 21  0  0  0  0  0  0  0  0999 V2000
   19.9770   16.3800    4.3750 C   0  0  0  0  0  0  0  0  0  0  0  0
   20.4140   17.5920    3.8250 C   0  0  0  0  0  0  0  0  0  0  0  0
   21.4990   18.2730    4.3890 C   0  0  0  0  0  0  0  0  0  0  0  0
   22.1410   17.7830    5.5300 C   0  0  0  0  0  0  0  0  0  0  0  0
   21.7430   16.5490    6.0400 C   0  0  0  0  0  0  0  0  0  0  0  0
   20.6620   15.8710    5.4790 C   0  0  0  0  0  0  0  0  0  0  0  0
   20.2810   14.7060    6.0240 F   0  0  0  0  0  0  0  0  0  0  0  0
   23.2970   18.4090    6.0110 N   0  0  0  0  0  0  0  0  0  0  0  0
   18.8220   15.6250    3.7770 C   0  0  0  0  0  0  0  0  0  0  0  0
   18.3430   13.3220    3.4240 C   0  0  0  0  0  0  0  0  0  0  0  0
   19.2340   14.4000    3.1730 O   0  0  0  0  0  0  0  0  0  0  0  0
   19.9021   18.0104    2.9459 H   0  0  0  0  0  0  0  0  0  0  0  0
   21.8516   19.2073    3.9277 H   0  0  0  0  0  0  0  0  0  0  0  0
   22.2846   16.1076    6.8896 H   0  0  0  0  0  0  0  0  0  0  0  0
   23.7676   18.0454    6.8520 H   0  0  0  0  0  0  0  0  0  0  0  0
   23.6770   19.2332    5.5239 H   0  0  0  0  0  0  0  0  0  0  0  0
   18.0954   15.4012    4.5720 H   0  0  0  0  0  0  0  0  0  0  0  0
   18.3763   16.2550    2.9931 H   0  0  0  0  0  0  0  0  0  0  0  0
   18.2298   13.1850    4.5096 H   0  0  0  0  0  0  0  0  0  0  0  0
   17.3624   13.5454    2.9784 H   0  0  0  0  0  0  0  0  0  0  0  0
   18.7470   12.4010    2.9784 H   0  0  0  0  0  0  0  0  0  0  0  0
  2  1  2  0
  3  2  1  0
  4  3  2  0
  5  4  1  0
  6  1  1  0
  6  5  2  0
  7  6  1  0
  8  4  1  0
  9  1  1  0
 11 10  1  0
 11  9  1  0
  2 12  1  0
  3 13  1  0
  5 14  1  0
  8 15  1  0
  8 16  1  0
  9 17  1  0
  9 18  1  0
 10 19  1  0
 10 20  1  0
 10 21  1  0
M  END
$$$$
=
     RDKit          3D

 24 25  0  0  0  0  0  0  0  0999 V2000
   12.4300   11.8840    2.7190 N   0  0  0  0  0  0  0  0  0  0  0  0
   13.4060   12.7540    3.1520 C   0  0  0  0  0  0  0  0  0  0  0  0
   13.0190   13.8080    3.8740 N   0  0  0  0  0  0  0  0  0  0  0  0
   13.9940   14.6540    4.2750 C   0  0  0  0  0  0  0  0  0  0  0  0
   15.3360   14.5040    3.9790 C   0  0  0  0  0  0  0  0  0  0  0  0
   15.6000   13.3830    3.2130 C   0  0  0  0  0  0  0  0  0  0  0  0
   14.6640   12.5090    2.7820 N   0  0  0  0  0  0  0  0  0  0  0  0
   16.3730   15.4380    4.4290 C   0  0  0  0  0  0  0  0  0  0  0  0
   16.2490   16.1350    5.6370 C   0  0  0  0  0  0  0  0  0  0  0  0
   17.2560   17.0040    6.0230 C   0  0  0  0  0  0  0  0  0  0  0  0
   18.3710   17.2310    5.2980 N   0  0  0  0  0  0  0  0  0  0  0  0
   18.4980   16.5600    4.1240 C   0  0  0  0  0  0  0  0  0  0  0  0
   17.5280   15.6650    3.6680 C   0  0  0  0  0  0  0  0  0  0  0  0
   19.7380   16.7950    3.2880 C   0  0  0  0  0  0  0  0  0  0  0  0
   20.4360   17.8980    3.6870 F   0  0  0  0  0  0  0  0  0  0  0  0
   19.4460   17.0080    1.9710 F   0  0  0  0  0  0  0  0  0  0  0  0
   12.6874   11.0585    2.1593 H   0  0  0  0  0  0  0  0  0  0  0  0
   11.4427   12.0588    2.9549 H   0  0  0  0  0  0  0  0  0  0  0  0
   13.6985   15.5239    4.8800 H   0  0  0  0  0  0  0  0  0  0  0  0
   16.6465   13.1892    2.9349 H   0  0  0  0  0  0  0  0  0  0  0  0
   15.3620   15.9940    6.2721 H   0  0  0  0  0  0  0  0  0  0  0  0
   17.1400   17.5404    6.9763 H   0  0  0  0  0  0  0  0  0  0  0  0
   17.6701   15.1387    2.7126 H   0  0  0  0  0  0  0  0  0  0  0  0
   20.3295   15.8776    3.4239 H   0  0  0  0  0  0  0  0  0  0  0  0
  2  1  1  0
  3  2  2  0
  4  3  1  0
  5  4  2  0
  6  5  1  0
  7  6  2  0
  7  2  1  0
  8  5  1  0
  9  8  2  0
 10  9  1  0
 11 10  2  0
 12 11  1  0
 13  8  1  0
 13 12  2  0
 14 12  1  0
 15 14  1  0
 16 14  1  0
  1 17  1  0
  1 18  1  0
  4 19  1  0
  6 20  1  0
  9 21  1  0
 10 22  1  0
 13 23  1  0
 14 24  1  0
M  END
$$$$
=
     RDKit          3D

 24 25  0  0  0  0  0  0  0  0999 V2000
   20.0510   17.1220    5.2990 C   0  0  0  0  0  0  0  0  0  0  0  0
   21.1650   16.9950    6.1090 C   0  0  0  0  0  0  0  0  0  0  0  0
   21.4870   15.8710    6.7760 N   0  0  0  0  0  0  0  0  0  0  0  0
   20.6340   14.8510    6.6170 C   0  0  0  0  0  0  0  0  0  0  0  0
   19.4990   14.8600    5.9000 N   0  0  0  0  0  0  0  0  0  0  0  0
   19.1960   16.0080    5.2620 C   0  0  0  0  0  0  0  0  0  0  0  0
   17.9830   16.1230    4.5450 N   0  0  0  0  0  0  0  0  0  0  0  0
   16.9330   16.8030    5.3280 C   0  0  0  0  0  0  0  0  0  0  0  0
   15.6940   15.9170    5.2040 C   0  0  0  0  0  0  0  0  0  0  0  0
   15.9490   15.1270    3.9330 C   0  0  0  0  0  0  0  0  0  0  0  0
   17.4440   14.8530    4.0360 C   0  0  0  0  0  0  0  0  0  0  0  0
   19.7130   18.3560    4.6900 N   0  0  0  0  0  0  0  0  0  0  0  0
   21.8285   17.8660    6.2146 H   0  0  0  0  0  0  0  0  0  0  0  0
   20.8893   13.9097    7.1258 H   0  0  0  0  0  0  0  0  0  0  0  0
   17.2369   16.8940    6.3813 H   0  0  0  0  0  0  0  0  0  0  0  0
   16.7447   17.8223    4.9599 H   0  0  0  0  0  0  0  0  0  0  0  0
   15.6013   15.2470    6.0715 H   0  0  0  0  0  0  0  0  0  0  0  0
   14.7573   16.4927    5.1700 H   0  0  0  0  0  0  0  0  0  0  0  0
   15.3698   14.1920    3.9188 H   0  0  0  0  0  0  0  0  0  0  0  0
   15.6532   15.6525    3.0130 H   0  0  0  0  0  0  0  0  0  0  0  0
   17.6469   14.0293    4.7362 H   0  0  0  0  0  0  0  0  0  0  0  0
   17.8934   14.5453    3.0803 H   0  0  0  0  0  0  0  0  0  0  0  0
   18.8776   18.4230    4.0912 H   0  0  0  0  0  0  0  0  0  0  0  0
   20.3027   19.1859    4.8461 H   0  0  0  0  0  0  0  0  0  0  0  0
  2  1  2  0
  3  2  1  0
  4  3  2  0
  5  4  1  0
  6  5  2  0
  6  1  1  0
  7  6  1  0
  8  7  1  0
  9  8  1  0
 10  9  1  0
 11 10  1  0
 11  7  1  0
 12  1  1  0
  2 13  1  0
  4 14  1  0
  8 15  1  0
  8 16  1  0
  9 17  1  0
  9 18  1  0
 10 19  1  0
 10 20  1  0
 11 21  1  0
 11 22  1  0
 12 23  1  0
 12 24  1  0
M  END
$$$$
=
     RDKit          3D

 43 44  0  0  0  0  0  0  0  0999 V2000
   15.2500   15.4100    4.5090 N   0  0  0  0  0  4  0  0  0  0  0  0
   16.3400   14.9790    3.5540 C   0  0  0  0  0  0  0  0  0  0  0  0
   17.7460   15.2190    4.1260 C   0  0  0  0  0  0  0  0  0  0  0  0
   17.8070   16.4840    4.9830 C   0  0  0  0  0  0  0  0  0  0  0  0
   16.8470   16.3500    6.1790 C   0  0  0  0  0  0  0  0  0  0  0  0
   15.6730   15.3900    5.9490 C   0  0  0  0  0  0  0  0  0  0  0  0
   19.2690   16.7700    5.4840 N   0  0  0  0  0  4  0  0  0  0  0  0
   20.1920   15.5170    5.4010 C   0  0  0  0  0  0  0  0  0  0  0  0
   21.7060   15.8480    5.2690 C   0  0  0  0  0  0  0  0  0  0  0  0
   22.0570   17.1520    5.9230 N   0  0  0  0  0  4  0  0  0  0  0  0
   21.3050   18.3470    5.3960 C   0  0  0  0  0  0  0  0  0  0  0  0
   19.9360   17.9670    4.7600 C   0  0  0  0  0  0  0  0  0  0  0  0
   13.9600   14.5780    4.3210 C   0  0  0  0  0  0  0  0  0  0  0  0
   12.9780   12.6710    3.0140 C   0  0  0  0  0  0  0  0  0  0  0  0
   14.2600   13.3090    3.5280 C   0  0  0  0  0  0  0  0  0  0  0  0
   15.0521   16.3914    4.2671 H   0  0  0  0  0  0  0  0  0  0  0  0
   16.2221   13.9057    3.3441 H   0  0  0  0  0  0  0  0  0  0  0  0
   16.2422   15.5809    2.6385 H   0  0  0  0  0  0  0  0  0  0  0  0
   18.0293   14.3558    4.7462 H   0  0  0  0  0  0  0  0  0  0  0  0
   18.4393   15.3466    3.2816 H   0  0  0  0  0  0  0  0  0  0  0  0
   17.4967   17.3360    4.3603 H   0  0  0  0  0  0  0  0  0  0  0  0
   17.4232   15.9871    7.0429 H   0  0  0  0  0  0  0  0  0  0  0  0
   16.4090   17.3459    6.3412 H   0  0  0  0  0  0  0  0  0  0  0  0
   14.8255   15.6975    6.5793 H   0  0  0  0  0  0  0  0  0  0  0  0
   15.9914   14.3703    6.2115 H   0  0  0  0  0  0  0  0  0  0  0  0
   19.1597   17.0226    6.4765 H   0  0  0  0  0  0  0  0  0  0  0  0
   20.0475   14.9210    6.3142 H   0  0  0  0  0  0  0  0  0  0  0  0
   19.9064   14.9739    4.4880 H   0  0  0  0  0  0  0  0  0  0  0  0
   22.2876   15.0446    5.7446 H   0  0  0  0  0  0  0  0  0  0  0  0
   21.9428   15.9313    4.1980 H   0  0  0  0  0  0  0  0  0  0  0  0
   21.8598   17.0683    6.9305 H   0  0  0  0  0  0  0  0  0  0  0  0
   23.0516   17.3214    5.7158 H   0  0  0  0  0  0  0  0  0  0  0  0
   21.1245   19.0434    6.2281 H   0  0  0  0  0  0  0  0  0  0  0  0
   21.9208   18.8038    4.6072 H   0  0  0  0  0  0  0  0  0  0  0  0
   19.2642   18.8361    4.8187 H   0  0  0  0  0  0  0  0  0  0  0  0
   20.1177   17.6727    3.7158 H   0  0  0  0  0  0  0  0  0  0  0  0
   13.5583   14.3032    5.3075 H   0  0  0  0  0  0  0  0  0  0  0  0
   13.2231   15.1796    3.7687 H   0  0  0  0  0  0  0  0  0  0  0  0
   12.3554   12.3611    3.8662 H   0  0  0  0  0  0  0  0  0  0  0  0
   12.4257   13.3994    2.4021 H   0  0  0  0  0  0  0  0  0  0  0  0
   13.2260   11.7912    2.4021 H   0  0  0  0  0  0  0  0  0  0  0  0
   14.7821   12.5928    4.1795 H   0  0  0  0  0  0  0  0  0  0  0  0
   14.8890   13.5752    2.6657 H   0  0  0  0  0  0  0  0  0  0  0  0
  2  1  1  0
  3  2  1  0
  4  3  1  0
  5  4  1  0
  6  1  1  0
  6  5  1  0
  7  4  1  0
  8  7  1  0
  9  8  1  0
 10  9  1  0
 11 10  1  0
 12 11  1  0
 12  7  1  0
 13  1  1  0
 15 14  1  0
 15 13  1  0
  1 16  1  0
  2 17  1  0
  2 18  1  0
  3 19  1  0
  3 20  1  0
  4 21  1  0
  5 22  1  0
  5 23  1  0
  6 24  1  0
  6 25  1  0
  7 26  1  0
  8 27  1  0
  8 28  1  0
  9 29  1  0
  9 30  1  0
 10 31  1  0
 10 32  1  0
 11 33  1  0
 11 34  1  0
 12 35  1  0
 12 36  1  0
 13 37  1  0
 13 38  1  0
 14 39  1  0
 14 40  1  0
 14 41  1  0
 15 42  1  0
 15 43  1  0
M  CHG  3   1   1   7   1  10   1
M  END
$$$$
=
     RDKit          3D

 51 53  0  0  0  0  0  0  0  0999 V2000
   11.3190   13.0420    3.3240 C   0  0  0  0  0  0  0  0  0  0  0  0
   11.1850   12.1010    2.3660 N   0  0  0  0  0  0  0  0  0  0  0  0
    9.9610   11.6370    2.1270 C   0  0  0  0  0  0  0  0  0  0  0  0
    9.8230   10.6900    1.1350 N   0  0  0  0  0  0  0  0  0  0  0  0
    8.8550   12.0490    2.7440 N   0  0  0  0  0  0  0  0  0  0  0  0
    8.9970   12.9700    3.7200 C   0  0  0  0  0  0  0  0  0  0  0  0
   10.2300   13.5040    4.0390 C   0  0  0  0  0  0  0  0  0  0  0  0
   15.3280   14.4980    4.0040 C   0  0  0  0  0  0  0  0  0  0  0  0
   14.2210   15.2160    4.4510 C   0  0  0  0  0  0  0  0  0  0  0  0
   12.9240   14.7370    4.2320 C   0  0  0  0  0  0  0  0  0  0  0  0
   12.6950   13.5290    3.5540 C   0  0  0  0  0  0  0  0  0  0  0  0
   13.8260   12.8150    3.1160 C   0  0  0  0  0  0  0  0  0  0  0  0
   15.1270   13.2920    3.3370 C   0  0  0  0  0  0  0  0  0  0  0  0
   16.5350   15.0750    4.2810 O   0  0  0  0  0  0  0  0  0  0  0  0
   17.0600   15.8770    6.4620 C   0  0  0  0  0  0  0  0  0  0  0  0
   16.5260   16.2480    5.0910 C   0  0  0  0  0  0  0  0  0  0  0  0
    7.7500   13.3740    4.4030 C   0  0  0  0  0  0  0  0  0  0  0  0
    6.8840   12.4260    4.9810 C   0  0  0  0  0  0  0  0  0  0  0  0
    5.7120   12.8180    5.6380 C   0  0  0  0  0  0  0  0  0  0  0  0
    5.4120   14.1840    5.7420 C   0  0  0  0  0  0  0  0  0  0  0  0
    6.2310   15.1520    5.1420 C   0  0  0  0  0  0  0  0  0  0  0  0
    7.3940   14.7360    4.4860 C   0  0  0  0  0  0  0  0  0  0  0  0
    4.8370   11.9480    6.2370 O   0  0  0  0  0  0  0  0  0  0  0  0
    5.1550   10.5650    6.1440 C   0  0  0  0  0  0  0  0  0  0  0  0
    5.8320   16.4560    5.2720 O   0  0  0  0  0  0  0  0  0  0  0  0
    5.3930   17.1170    4.0920 C   0  0  0  0  0  0  0  0  0  0  0  0
    4.2450   14.5720    6.3620 O   0  0  0  0  0  0  0  0  0  0  0  0
    4.5130   14.9180    7.7200 C   0  0  0  0  0  0  0  0  0  0  0  0
    8.8932   10.3040    0.9173 H   0  0  0  0  0  0  0  0  0  0  0  0
   10.6497   10.3684    0.6115 H   0  0  0  0  0  0  0  0  0  0  0  0
   10.3406   14.2633    4.8272 H   0  0  0  0  0  0  0  0  0  0  0  0
   14.3675   16.1686    4.9812 H   0  0  0  0  0  0  0  0  0  0  0  0
   12.0660   15.3194    4.5989 H   0  0  0  0  0  0  0  0  0  0  0  0
   13.6868   11.8602    2.5878 H   0  0  0  0  0  0  0  0  0  0  0  0
   15.9912   12.7113    2.9822 H   0  0  0  0  0  0  0  0  0  0  0  0
   16.4195   16.3220    7.2377 H   0  0  0  0  0  0  0  0  0  0  0  0
   17.0614   14.7824    6.5711 H   0  0  0  0  0  0  0  0  0  0  0  0
   18.0863   16.2576    6.5711 H   0  0  0  0  0  0  0  0  0  0  0  0
   17.1659   17.0193    4.6376 H   0  0  0  0  0  0  0  0  0  0  0  0
   15.5040   16.6461    5.1746 H   0  0  0  0  0  0  0  0  0  0  0  0
    7.1334   11.3567    4.9149 H   0  0  0  0  0  0  0  0  0  0  0  0
    8.0475   15.4902    4.0231 H   0  0  0  0  0  0  0  0  0  0  0  0
    5.2522   10.1423    7.1549 H   0  0  0  0  0  0  0  0  0  0  0  0
    4.3541   10.0402    5.6026 H   0  0  0  0  0  0  0  0  0  0  0  0
    6.1047   10.4427    5.6026 H   0  0  0  0  0  0  0  0  0  0  0  0
    4.8037   18.0043    4.3665 H   0  0  0  0  0  0  0  0  0  0  0  0
    6.2660   17.4259    3.4984 H   0  0  0  0  0  0  0  0  0  0  0  0
    4.7697   16.4321    3.4984 H   0  0  0  0  0  0  0  0  0  0  0  0
    3.9774   14.2265    8.3871 H   0  0  0  0  0  0  0  0  0  0  0  0
    5.5942   14.8471    7.9099 H   0  0  0  0  0  0  0  0  0  0  0  0
    4.1740   15.9471    7.9099 H   0  0  0  0  0  0  0  0  0  0  0  0
  2  1  2  0
  3  2  1  0
  4  3  1  0
  5  3  2  0
  6  5  1  0
  7  6  2  0
  7  1  1  0
  9  8  2  0
 10  9  1  0
 11 10  2  0
 11  1  1  0
 12 11  1  0
 13 12  2  0
 13  8  1  0
 14  8  1  0
 16 14  1  0
 16 15  1  0
 17  6  1  0
 18 17  2  0
 19 18  1  0
 20 19  2  0
 21 20  1  0
 22 21  2  0
 22 17  1  0
 23 19  1  0
 24 23  1  0
 25 21  1  0
 26 25  1  0
 27 20  1  0
 28 27  1  0
  4 29  1  0
  4 30  1  0
  7 31  1  0
  9 32  1  0
 10 33  1  0
 12 34  1  0
 13 35  1  0
 15 36  1  0
 15 37  1  0
 15 38  1  0
 16 39  1  0
 16 40  1  0
 18 41  1  0
 22 42  1  0
 24 43  1  0
 24 44  1  0
 24 45  1  0
 26 46  1  0
 26 47  1  0
 26 48  1  0
 28 49  1  0
 28 50  1  0
 28 51  1  0
M  END
$$$$
=
     RDKit          3D

 30 31  0  0  0  0  0  0  0  0999 V2000
   17.7050   13.3980    3.1600 C   0  0  0  0  0  0  0  0  0  0  0  0
   18.8560   14.0740    3.5850 C   0  0  0  0  0  0  0  0  0  0  0  0
   18.7720   15.2890    4.2750 C   0  0  0  0  0  0  0  0  0  0  0  0
   17.4980   15.7900    4.5960 C   0  0  0  0  0  0  0  0  0  0  0  0
   16.3310   15.1010    4.2290 C   0  0  0  0  0  0  0  0  0  0  0  0
   16.4530   13.8930    3.5300 C   0  0  0  0  0  0  0  0  0  0  0  0
   19.9260   16.0230    4.7020 N   0  0  0  0  0  0  0  0  0  0  0  0
   20.3670   17.0440    3.9120 N   0  0  0  0  0  0  0  0  0  0  0  0
   21.3730   17.6110    4.5760 C   0  0  0  0  0  0  0  0  0  0  0  0
   21.6450   16.9340    5.7720 C   0  0  0  0  0  0  0  0  0  0  0  0
   20.7410   15.8890    5.8250 C   0  0  0  0  0  0  0  0  0  0  0  0
   20.6850   14.8140    6.8440 C   0  0  0  0  0  0  0  0  0  0  0  0
   22.0650   18.7940    4.0120 C   0  0  0  0  0  0  0  0  0  0  0  0
   14.9760   15.6270    4.6250 C   0  0  0  0  0  0  0  0  0  0  0  0
   14.9480   16.9810    4.7690 F   0  0  0  0  0  0  0  0  0  0  0  0
   14.0040   15.3360    3.7140 F   0  0  0  0  0  0  0  0  0  0  0  0
   14.5420   15.1140    5.8080 F   0  0  0  0  0  0  0  0  0  0  0  0
   17.8090   12.1290    2.5800 N   0  0  0  0  0  0  0  0  0  0  0  0
   19.8449   13.6417    3.3724 H   0  0  0  0  0  0  0  0  0  0  0  0
   17.4141   16.7395    5.1449 H   0  0  0  0  0  0  0  0  0  0  0  0
   15.5478   13.3253    3.2685 H   0  0  0  0  0  0  0  0  0  0  0  0
   22.4174   17.1822    6.5148 H   0  0  0  0  0  0  0  0  0  0  0  0
   20.7082   15.2601    7.8492 H   0  0  0  0  0  0  0  0  0  0  0  0
   19.7557   14.2388    6.7195 H   0  0  0  0  0  0  0  0  0  0  0  0
   21.5495   14.1454    6.7195 H   0  0  0  0  0  0  0  0  0  0  0  0
   22.4355   19.4273    4.8315 H   0  0  0  0  0  0  0  0  0  0  0  0
   22.9118   18.4629    3.3929 H   0  0  0  0  0  0  0  0  0  0  0  0
   21.3613   19.3698    3.3929 H   0  0  0  0  0  0  0  0  0  0  0  0
   16.9611   11.6341    2.2684 H   0  0  0  0  0  0  0  0  0  0  0  0
   18.7334   11.6897    2.4647 H   0  0  0  0  0  0  0  0  0  0  0  0
  2  1  2  0
  3  2  1  0
  4  3  2  0
  5  4  1  0
  6  5  2  0
  6  1  1  0
  7  3  1  0
  8  7  1  0
  9  8  2  0
 10  9  1  0
 11  7  1  0
 11 10  2  0
 12 11  1  0
 13  9  1  0
 14  5  1  0
 15 14  1  0
 16 14  1  0
 17 14  1  0
 18  1  1  0
  2 19  1  0
  4 20  1  0
  6 21  1  0
 10 22  1  0
 12 23  1  0
 12 24  1  0
 12 25  1  0
 13 26  1  0
 13 27  1  0
 13 28  1  0
 18 29  1  0
 18 30  1  0
M  END
$$$$
=
     RDKit          3D

 38 39  0  0  0  0  0  0  0  0999 V2000
   15.7390   14.1560    3.0570 C   0  0  1  0  0  0  0  0  0  0  0  0
   15.0850   15.0750    4.0800 C   0  0  0  0  0  0  0  0  0  0  0  0
   16.2370   15.8590    4.6630 C   0  0  0  0  0  0  0  0  0  0  0  0
   16.0720   16.7840    5.4430 O   0  0  0  0  0  0  0  0  0  0  0  0
   17.4230   15.2580    4.2280 N   0  0  0  0  0  0  0  0  0  0  0  0
   17.1470   13.9920    3.5990 C   0  0  0  0  0  0  0  0  0  0  0  0
   18.7390   15.6830    4.5550 C   0  0  0  0  0  0  0  0  0  0  0  0
   19.4070   15.0930    5.6440 C   0  0  0  0  0  0  0  0  0  0  0  0
   20.6860   15.5050    6.0390 C   0  0  0  0  0  0  0  0  0  0  0  0
   21.3610   16.4350    5.2530 C   0  0  0  0  0  0  0  0  0  0  0  0
   20.7370   17.0120    4.1470 C   0  0  0  0  0  0  0  0  0  0  0  0
   19.4280   16.6530    3.8040 C   0  0  0  0  0  0  0  0  0  0  0  0
   21.3580   14.8330    7.0680 N   0  0  0  0  0  0  0  0  0  0  0  0
   18.8940   17.0990    2.6180 O   0  0  0  0  0  0  0  0  0  0  0  0
   19.8920   17.5230    1.6900 C   0  0  0  0  0  0  0  0  0  0  0  0
   15.0510   12.8240    2.9350 C   0  0  0  0  0  0  0  0  0  0  0  0
   15.3920   11.9340    2.1680 O   0  0  0  0  0  0  0  0  0  0  0  0
   13.9650   12.7770    3.7550 O   0  0  0  0  0  0  0  0  0  0  0  0
   11.6800   13.4930    3.3900 C   0  0  0  0  0  0  0  0  0  0  0  0
   12.7200   12.4190    3.1340 C   0  0  0  0  0  0  0  0  0  0  0  0
   15.6951   14.5743    2.0406 H   0  0  0  0  0  0  0  0  0  0  0  0
   14.3616   15.7469    3.5948 H   0  0  0  0  0  0  0  0  0  0  0  0
   14.5221   14.5208    4.8455 H   0  0  0  0  0  0  0  0  0  0  0  0
   17.1919   13.1725    4.3314 H   0  0  0  0  0  0  0  0  0  0  0  0
   17.8770   13.7379    2.8164 H   0  0  0  0  0  0  0  0  0  0  0  0
   18.9103   14.2849    6.2011 H   0  0  0  0  0  0  0  0  0  0  0  0
   22.3938   16.7168    5.5060 H   0  0  0  0  0  0  0  0  0  0  0  0
   21.2769   17.7539    3.5403 H   0  0  0  0  0  0  0  0  0  0  0  0
   22.2985   15.1396    7.3551 H   0  0  0  0  0  0  0  0  0  0  0  0
   20.9117   14.0323    7.5376 H   0  0  0  0  0  0  0  0  0  0  0  0
   20.7690   17.8956    2.2395 H   0  0  0  0  0  0  0  0  0  0  0  0
   20.1893   16.6735    1.0576 H   0  0  0  0  0  0  0  0  0  0  0  0
   19.4869   18.3267    1.0576 H   0  0  0  0  0  0  0  0  0  0  0  0
   11.5504   13.6269    4.4741 H   0  0  0  0  0  0  0  0  0  0  0  0
   12.0129   14.4403    2.9408 H   0  0  0  0  0  0  0  0  0  0  0  0
   10.7225   13.1907    2.9408 H   0  0  0  0  0  0  0  0  0  0  0  0
   12.3670   11.4644    3.5512 H   0  0  0  0  0  0  0  0  0  0  0  0
   12.8748   12.3201    2.0495 H   0  0  0  0  0  0  0  0  0  0  0  0
  2  1  1  0
  3  2  1  0
  4  3  2  0
  5  3  1  0
  6  1  1  0
  6  5  1  0
  7  5  1  0
  8  7  2  0
  9  8  1  0
 10  9  2  0
 11 10  1  0
 12  7  1  0
 12 11  2  0
 13  9  1  0
 14 12  1  0
 15 14  1  0
 16  1  1  0
 17 16  2  0
 18 16  1  0
 20 19  1  0
 20 18  1  0
  1 21  1  6
  2 22  1  0
  2 23  1  0
  6 24  1  0
  6 25  1  0
  8 26  1  0
 10 27  1  0
 11 28  1  0
 13 29  1  0
 13 30  1  0
 15 31  1  0
 15 32  1  0
 15 33  1  0
 19 34  1  0
 19 35  1  0
 19 36  1  0
 20 37  1  0
 20 38  1  0
M  END
$$$$
=
     RDKit          3D

 44 45  0  0  0  0  0  0  0  0999 V2000
   29.0360   25.6370   15.2950 N   0  0  0  0  0  0  0  0  0  0  0  0
   28.7920   25.1340   14.0290 C   0  0  0  0  0  0  0  0  0  0  0  0
   28.6580   23.9190   13.8190 O   0  0  0  0  0  0  0  0  0  0  0  0
   28.5540   26.0810   12.8480 C   0  0  0  0  0  0  0  0  0  0  0  0
   27.3900   27.0170   13.1900 C   0  0  0  0  0  0  0  0  0  0  0  0
   26.0710   26.2710   13.4220 C   0  0  0  0  0  0  0  0  0  0  0  0
   26.0670   24.9520   12.7280 N   0  0  0  0  0  4  0  0  0  0  0  0
   26.7360   24.9530   11.4040 C   0  0  0  0  0  0  0  0  0  0  0  0
   28.2200   25.2770   11.5720 C   0  0  0  0  0  0  0  0  0  0  0  0
   29.0610   27.0740   15.6690 C   0  0  0  0  0  0  0  0  0  0  0  0
   28.3050   27.3380   16.9890 C   0  0  0  0  0  0  0  0  0  0  0  0
   28.8300   28.5550   17.7550 C   0  0  0  0  0  0  0  0  0  0  0  0
   29.3170   29.6470   16.8140 C   0  0  0  0  0  0  0  0  0  0  0  0
   30.4690   29.1690   15.9270 C   0  0  0  0  0  0  0  0  0  0  0  0
   30.4800   27.6560   15.6940 C   0  0  0  0  0  0  0  0  0  0  0  0
   30.8040   24.2990   16.4410 C   0  0  0  0  0  0  0  0  0  0  0  0
   29.3260   24.6530   16.3540 C   0  0  0  0  0  0  0  0  0  0  0  0
   29.4658   26.6673   12.6615 H   0  0  0  0  0  0  0  0  0  0  0  0
   27.6441   27.5729   14.1046 H   0  0  0  0  0  0  0  0  0  0  0  0
   27.2426   27.6872   12.3303 H   0  0  0  0  0  0  0  0  0  0  0  0
   25.9360   26.1086   14.5015 H   0  0  0  0  0  0  0  0  0  0  0  0
   25.2506   26.8805   13.0152 H   0  0  0  0  0  0  0  0  0  0  0  0
   26.5478   24.2694   13.3311 H   0  0  0  0  0  0  0  0  0  0  0  0
   25.0797   24.7129   12.5578 H   0  0  0  0  0  0  0  0  0  0  0  0
   26.6293   23.9611   10.9406 H   0  0  0  0  0  0  0  0  0  0  0  0
   26.2691   25.7149   10.7626 H   0  0  0  0  0  0  0  0  0  0  0  0
   28.7779   24.3296   11.6057 H   0  0  0  0  0  0  0  0  0  0  0  0
   28.5033   25.9094   10.7177 H   0  0  0  0  0  0  0  0  0  0  0  0
   28.5232   27.6100   14.8731 H   0  0  0  0  0  0  0  0  0  0  0  0
   27.2429   27.5039   16.7558 H   0  0  0  0  0  0  0  0  0  0  0  0
   28.4559   26.4585   17.6322 H   0  0  0  0  0  0  0  0  0  0  0  0
   28.0202   28.9588   18.3804 H   0  0  0  0  0  0  0  0  0  0  0  0
   29.6809   28.2302   18.3718 H   0  0  0  0  0  0  0  0  0  0  0  0
   28.4810   29.9609   16.1716 H   0  0  0  0  0  0  0  0  0  0  0  0
   29.6847   30.4836   17.4263 H   0  0  0  0  0  0  0  0  0  0  0  0
   30.3868   29.6700   14.9512 H   0  0  0  0  0  0  0  0  0  0  0  0
   31.4032   29.4202   16.4506 H   0  0  0  0  0  0  0  0  0  0  0  0
   31.0481   27.1750   16.5039 H   0  0  0  0  0  0  0  0  0  0  0  0
   30.9461   27.4636   14.7164 H   0  0  0  0  0  0  0  0  0  0  0  0
   31.1024   24.2275   17.4974 H   0  0  0  0  0  0  0  0  0  0  0  0
   30.9796   23.3334   15.9443 H   0  0  0  0  0  0  0  0  0  0  0  0
   31.3980   25.0803   15.9443 H   0  0  0  0  0  0  0  0  0  0  0  0
   29.0074   25.0719   17.3199 H   0  0  0  0  0  0  0  0  0  0  0  0
   28.7783   23.7311   16.1087 H   0  0  0  0  0  0  0  0  0  0  0  0
  2  1  1  0
  3  2  2  0
  4  2  1  0
  5  4  1  0
  6  5  1  0
  7  6  1  0
  8  7  1  0
  9  8  1  0
  9  4  1  0
 10  1  1  0
 11 10  1  0
 12 11  1  0
 13 12  1  0
 14 13  1  0
 15 10  1  0
 15 14  1  0
 17  1  1  0
 17 16  1  0
  4 18  1  0
  5 19  1  0
  5 20  1  0
  6 21  1  0
  6 22  1  0
  7 23  1  0
  7 24  1  0
  8 25  1  0
  8 26  1  0
  9 27  1  0
  9 28  1  0
 10 29  1  0
 11 30  1  0
 11 31  1  0
 12 32  1  0
 12 33  1  0
 13 34  1  0
 13 35  1  0
 14 36  1  0
 14 37  1  0
 15 38  1  0
 15 39  1  0
 16 40  1  0
 16 41  1  0
 16 42  1  0
 17 43  1  0
 17 44  1  0
M  CHG  1   7   1
M  END
$$$$
=
     RDKit          3D

 27 29  0  0  0  0  0  0  0  0999 V2000
   13.6020   14.3230    3.9920 C   0  0  0  0  0  0  0  0  0  0  0  0
   14.1520   15.3550    4.6440 C   0  0  0  0  0  0  0  0  0  0  0  0
   15.5980   15.5480    4.6780 C   0  0  0  0  0  0  0  0  0  0  0  0
   16.1450   16.6640    5.3240 C   0  0  0  0  0  0  0  0  0  0  0  0
   17.5250   16.8580    5.3410 C   0  0  0  0  0  0  0  0  0  0  0  0
   18.3660   15.9360    4.7200 C   0  0  0  0  0  0  0  0  0  0  0  0
   17.8350   14.8060    4.0830 C   0  0  0  0  0  0  0  0  0  0  0  0
   16.4410   14.6200    4.0510 C   0  0  0  0  0  0  0  0  0  0  0  0
   15.8730   13.4940    3.3960 N   0  0  0  0  0  0  0  0  0  0  0  0
   14.5000   13.3090    3.3050 C   0  0  0  0  0  0  0  0  0  0  0  0
   13.9740   12.3560    2.7230 O   0  0  0  0  0  0  0  0  0  0  0  0
   16.7460   12.5710    2.6840 C   0  0  0  0  0  0  0  0  0  0  0  0
   18.1260   12.4580    3.3130 C   0  0  0  0  0  0  0  0  0  0  0  0
   18.7630   13.8340    3.4070 C   0  0  0  0  0  0  0  0  0  0  0  0
   12.2330   14.1050    3.9110 N   0  0  0  0  0  0  0  0  0  0  0  0
   13.5004   16.0721    5.1647 H   0  0  0  0  0  0  0  0  0  0  0  0
   15.4832   17.3896    5.8195 H   0  0  0  0  0  0  0  0  0  0  0  0
   17.9505   17.7386    5.8444 H   0  0  0  0  0  0  0  0  0  0  0  0
   19.4542   16.0964    4.7299 H   0  0  0  0  0  0  0  0  0  0  0  0
   16.2781   11.5755    2.6828 H   0  0  0  0  0  0  0  0  0  0  0  0
   16.8787   12.9619    1.6644 H   0  0  0  0  0  0  0  0  0  0  0  0
   18.0336   12.0287    4.3215 H   0  0  0  0  0  0  0  0  0  0  0  0
   18.7571   11.8075    2.6897 H   0  0  0  0  0  0  0  0  0  0  0  0
   19.6947   13.7614    3.9873 H   0  0  0  0  0  0  0  0  0  0  0  0
   18.9734   14.1959    2.3898 H   0  0  0  0  0  0  0  0  0  0  0  0
   11.8708   13.2913    3.3937 H   0  0  0  0  0  0  0  0  0  0  0  0
   11.5797   14.7570    4.3682 H   0  0  0  0  0  0  0  0  0  0  0  0
  2  1  2  0
  3  2  1  0
  4  3  2  0
  5  4  1  0
  6  5  2  0
  7  6  1  0
  8  3  1  0
  8  7  2  0
  9  8  1  0
 10  9  1  0
 10  1  1  0
 11 10  2  0
 12  9  1  0
 13 12  1  0
 14 13  1  0
 14  7  1  0
 15  1  1  0
  2 16  1  0
  4 17  1  0
  5 18  1  0
  6 19  1  0
 12 20  1  0
 12 21  1  0
 13 22  1  0
 13 23  1  0
 14 24  1  0
 14 25  1  0
 15 26  1  0
 15 27  1  0
M  END
$$$$
=
     RDKit          3D

 40 40  0  0  0  0  0  0  0  0999 V2000
   15.5950   14.9840    4.4820 C   0  0  0  0  0  0  0  0  0  0  0  0
   15.8080   16.0240    5.3970 C   0  0  0  0  0  0  0  0  0  0  0  0
   17.0880   16.5580    5.5680 C   0  0  0  0  0  0  0  0  0  0  0  0
   18.1790   16.0570    4.8430 C   0  0  0  0  0  0  0  0  0  0  0  0
   17.9640   14.9910    3.9360 C   0  0  0  0  0  0  0  0  0  0  0  0
   16.6760   14.4840    3.7440 C   0  0  0  0  0  0  0  0  0  0  0  0
   19.0040   14.5870    3.0720 N   0  0  0  0  0  0  0  0  0  0  0  0
   14.2520   14.3900    4.2490 C   0  0  0  0  0  0  0  0  0  0  0  0
   13.2050   14.9970    4.4150 O   0  0  0  0  0  0  0  0  0  0  0  0
   13.2100   12.6150    3.1440 C   0  0  0  0  0  0  0  0  0  0  0  0
   14.3630   13.1030    3.8320 O   0  0  0  0  0  0  0  0  0  0  0  0
   19.4780   16.5770    5.0250 N   0  0  0  0  0  0  0  0  0  0  0  0
   20.3080   15.8340    5.9970 C   0  0  0  0  0  0  0  0  0  0  0  0
   19.5680   14.6520    6.6170 C   0  0  0  0  0  0  0  0  0  0  0  0
   21.6660   15.4040    5.4450 C   0  0  0  0  0  0  0  0  0  0  0  0
   19.6500   17.9780    4.5950 C   0  0  0  0  0  0  0  0  0  0  0  0
   20.5290   18.8190    5.5120 C   0  0  0  0  0  0  0  0  0  0  0  0
   20.1380   18.0410    3.1460 C   0  0  0  0  0  0  0  0  0  0  0  0
   14.9654   16.4210    5.9821 H   0  0  0  0  0  0  0  0  0  0  0  0
   17.2418   17.3819    6.2804 H   0  0  0  0  0  0  0  0  0  0  0  0
   16.5093   13.6849    3.0066 H   0  0  0  0  0  0  0  0  0  0  0  0
   18.8523   13.8121    2.4106 H   0  0  0  0  0  0  0  0  0  0  0  0
   19.9148   15.0670    3.1028 H   0  0  0  0  0  0  0  0  0  0  0  0
   12.4541   12.2951    3.8763 H   0  0  0  0  0  0  0  0  0  0  0  0
   12.7940   13.4142    2.5130 H   0  0  0  0  0  0  0  0  0  0  0  0
   13.4941   11.7600    2.5130 H   0  0  0  0  0  0  0  0  0  0  0  0
   20.5140   16.5584    6.7988 H   0  0  0  0  0  0  0  0  0  0  0  0
   19.6138   14.7251    7.7136 H   0  0  0  0  0  0  0  0  0  0  0  0
   18.5172   14.6661    6.2921 H   0  0  0  0  0  0  0  0  0  0  0  0
   20.0397   13.7129    6.2921 H   0  0  0  0  0  0  0  0  0  0  0  0
   22.3492   15.1877    6.2795 H   0  0  0  0  0  0  0  0  0  0  0  0
   21.5422   14.5011    4.8290 H   0  0  0  0  0  0  0  0  0  0  0  0
   22.0844   16.2136    4.8290 H   0  0  0  0  0  0  0  0  0  0  0  0
   18.6515   18.4344    4.6636 H   0  0  0  0  0  0  0  0  0  0  0  0
   20.2895   18.5899    6.5609 H   0  0  0  0  0  0  0  0  0  0  0  0
   21.5870   18.5882    5.3186 H   0  0  0  0  0  0  0  0  0  0  0  0
   20.3452   19.8862    5.3186 H   0  0  0  0  0  0  0  0  0  0  0  0
   21.2289   18.1818    3.1323 H   0  0  0  0  0  0  0  0  0  0  0  0
   19.8830   17.1025    2.6321 H   0  0  0  0  0  0  0  0  0  0  0  0
   19.6530   18.8840    2.6321 H   0  0  0  0  0  0  0  0  0  0  0  0
  2  1  2  0
  3  2  1  0
  4  3  2  0
  5  4  1  0
  6  1  1  0
  6  5  2  0
  7  5  1  0
  8  1  1  0
  9  8  2  0
 11 10  1  0
 11  8  1  0
 12  4  1  0
 13 12  1  0
 14 13  1  0
 15 13  1  0
 16 12  1  0
 17 16  1  0
 18 16  1  0
  2 19  1  0
  3 20  1  0
  6 21  1  0
  7 22  1  0
  7 23  1  0
 10 24  1  0
 10 25  1  0
 10 26  1  0
 13 27  1  0
 14 28  1  0
 14 29  1  0
 14 30  1  0
 15 31  1  0
 15 32  1  0
 15 33  1  0
 16 34  1  0
 17 35  1  0
 17 36  1  0
 17 37  1  0
 18 38  1  0
 18 39  1  0
 18 40  1  0
M  END
$$$$
=
     RDKit          3D

 44 46  0  0  0  0  0  0  0  0999 V2000
   17.3740   14.3080    4.2150 N   0  0  1  0  0  4  0  0  0  0  0  0
   16.7630   15.7040    4.3440 C   0  0  0  0  0  0  0  0  0  0  0  0
   15.3490   15.5970    4.9130 C   0  0  0  0  0  0  0  0  0  0  0  0
   14.5090   14.5670    4.2040 C   0  0  0  0  0  0  0  0  0  0  0  0
   15.0990   13.5700    3.4040 C   0  0  0  0  0  0  0  0  0  0  0  0
   16.5830   13.5320    3.1730 C   0  0  0  0  0  0  0  0  0  0  0  0
   14.2780   12.6240    2.7690 C   0  0  0  0  0  0  0  0  0  0  0  0
   12.8960   12.6520    2.9500 C   0  0  0  0  0  0  0  0  0  0  0  0
   12.3180   13.6240    3.7590 C   0  0  0  0  0  0  0  0  0  0  0  0
   13.1190   14.5770    4.3860 C   0  0  0  0  0  0  0  0  0  0  0  0
   18.8610   14.3670    3.9510 C   0  0  0  0  0  0  0  0  0  0  0  0
   19.6520   14.7530    5.2130 C   0  0  0  0  0  0  0  0  0  0  0  0
   22.3470   17.4690    5.9030 C   0  0  0  0  0  0  0  0  0  0  0  0
   21.4310   18.6080    5.4500 C   0  0  0  0  0  0  0  0  0  0  0  0
   20.1260   18.1320    4.8270 C   0  0  0  0  0  0  0  0  0  0  0  0
   20.3760   16.8620    4.0720 N   0  0  0  0  0  4  0  0  0  0  0  0
   20.8420   15.6880    4.9010 C   0  0  1  0  0  0  0  0  0  0  0  0
   21.5650   16.1870    6.1620 C   0  0  0  0  0  0  0  0  0  0  0  0
   17.3000   13.7995    5.1077 H   0  0  0  0  0  0  0  0  0  0  0  0
   17.3830   16.3136    5.0177 H   0  0  0  0  0  0  0  0  0  0  0  0
   16.7214   16.1764    3.3515 H   0  0  0  0  0  0  0  0  0  0  0  0
   15.4181   15.3225    5.9760 H   0  0  0  0  0  0  0  0  0  0  0  0
   14.8620   16.5734    4.7736 H   0  0  0  0  0  0  0  0  0  0  0  0
   16.9129   12.4829    3.1942 H   0  0  0  0  0  0  0  0  0  0  0  0
   16.7735   14.0067    2.1992 H   0  0  0  0  0  0  0  0  0  0  0  0
   14.7287   11.8553    2.1241 H   0  0  0  0  0  0  0  0  0  0  0  0
   12.2617   11.9039    2.4520 H   0  0  0  0  0  0  0  0  0  0  0  0
   11.2278   13.6409    3.9043 H   0  0  0  0  0  0  0  0  0  0  0  0
   12.6574   15.3419    5.0278 H   0  0  0  0  0  0  0  0  0  0  0  0
   19.2007   13.3791    3.6065 H   0  0  0  0  0  0  0  0  0  0  0  0
   19.0416   15.1368    3.1863 H   0  0  0  0  0  0  0  0  0  0  0  0
   18.9741   15.2654    5.9115 H   0  0  0  0  0  0  0  0  0  0  0  0
   20.0581   13.8285    5.6494 H   0  0  0  0  0  0  0  0  0  0  0  0
   23.0941   17.2787    5.1184 H   0  0  0  0  0  0  0  0  0  0  0  0
   22.8315   17.7714    6.8431 H   0  0  0  0  0  0  0  0  0  0  0  0
   21.1916   19.2302    6.3250 H   0  0  0  0  0  0  0  0  0  0  0  0
   21.9731   19.1674    4.6733 H   0  0  0  0  0  0  0  0  0  0  0  0
   19.3850   17.9495    5.6192 H   0  0  0  0  0  0  0  0  0  0  0  0
   19.7416   18.9009    4.1407 H   0  0  0  0  0  0  0  0  0  0  0  0
   19.4975   16.5922    3.6069 H   0  0  0  0  0  0  0  0  0  0  0  0
   21.1466   17.0695    3.4209 H   0  0  0  0  0  0  0  0  0  0  0  0
   21.5715   15.0922    4.3327 H   0  0  0  0  0  0  0  0  0  0  0  0
   20.8184   16.3790    6.9467 H   0  0  0  0  0  0  0  0  0  0  0  0
   22.2794   15.4106    6.4733 H   0  0  0  0  0  0  0  0  0  0  0  0
  2  1  1  0
  3  2  1  0
  4  3  1  0
  5  4  2  0
  6  5  1  0
  6  1  1  0
  7  5  1  0
  8  7  2  0
  9  8  1  0
 10  9  2  0
 10  4  1  0
 11  1  1  0
 12 11  1  0
 14 13  1  0
 15 14  1  0
 16 15  1  0
 17 12  1  0
 17 16  1  0
 18 17  1  0
 18 13  1  0
  1 19  1  1
  2 20  1  0
  2 21  1  0
  3 22  1  0
  3 23  1  0
  6 24  1  0
  6 25  1  0
  7 26  1  0
  8 27  1  0
  9 28  1  0
 10 29  1  0
 11 30  1  0
 11 31  1  0
 12 32  1  0
 12 33  1  0
 13 34  1  0
 13 35  1  0
 14 36  1  0
 14 37  1  0
 15 38  1  0
 15 39  1  0
 16 40  1  0
 16 41  1  0
 17 42  1  6
 18 43  1  0
 18 44  1  0
M  CHG  2   1   1  16   1
M  END
$$$$
=
     RDKit          3D

 49 52  0  0  0  0  0  0  0  0999 V2000
   27.7130   26.0720   15.2600 C   0  0  0  0  0  0  0  0  0  0  0  0
   27.8190   25.5060   13.8350 C   0  0  0  0  0  0  0  0  0  0  0  0
   28.1870   26.3350   12.7580 C   0  0  0  0  0  0  0  0  0  0  0  0
   28.2730   25.8320   11.4570 C   0  0  0  0  0  0  0  0  0  0  0  0
   27.9900   24.4920   11.2070 C   0  0  0  0  0  0  0  0  0  0  0  0
   27.6180   23.6550   12.2550 C   0  0  0  0  0  0  0  0  0  0  0  0
   27.5320   24.1570   13.5560 C   0  0  0  0  0  0  0  0  0  0  0  0
   28.6550   27.2690   15.4900 C   0  0  0  0  0  0  0  0  0  0  0  0
   29.9390   27.0400   16.0270 C   0  0  0  0  0  0  0  0  0  0  0  0
   30.8260   28.0930   16.2510 C   0  0  0  0  0  0  0  0  0  0  0  0
   30.4550   29.3950   15.9360 C   0  0  0  0  0  0  0  0  0  0  0  0
   29.1990   29.6440   15.3880 C   0  0  0  0  0  0  0  0  0  0  0  0
   28.3060   28.5930   15.1630 C   0  0  0  0  0  0  0  0  0  0  0  0
   25.6450   26.2490   16.6550 O   0  0  0  0  0  0  0  0  0  0  0  0
   26.2190   26.4150   15.5830 C   0  0  0  0  0  0  0  0  0  0  0  0
   25.5670   26.9030   14.4710 O   0  0  0  0  0  0  0  0  0  0  0  0
   24.3880   26.1870   14.0750 C   0  0  2  0  0  0  0  0  0  0  0  0
   24.4550   25.9510   12.5620 C   0  0  0  0  0  0  0  0  0  0  0  0
   23.0930   25.6760   11.9150 C   0  0  2  0  0  0  0  0  0  0  0  0
   22.4580   26.9450   11.3480 C   0  0  0  0  0  0  0  0  0  0  0  0
   21.6940   27.5700   12.5140 C   0  0  0  0  0  0  0  0  0  0  0  0
   21.8810   26.6100   13.6900 C   0  0  2  0  0  0  0  0  0  0  0  0
   23.1240   26.9410   14.5190 C   0  0  0  0  0  0  0  0  0  0  0  0
   22.1090   25.3040   12.9850 N   0  0  0  0  0  4  0  0  0  0  0  0
   28.1210   25.0460   16.1950 O   0  0  0  0  0  0  0  0  0  0  0  0
   28.4105   27.3959   12.9437 H   0  0  0  0  0  0  0  0  0  0  0  0
   28.5646   26.4956   10.6296 H   0  0  0  0  0  0  0  0  0  0  0  0
   28.0602   24.0955   10.1833 H   0  0  0  0  0  0  0  0  0  0  0  0
   27.3914   22.5967   12.0586 H   0  0  0  0  0  0  0  0  0  0  0  0
   27.2350   23.4865   14.3759 H   0  0  0  0  0  0  0  0  0  0  0  0
   30.2463   26.0130   16.2735 H   0  0  0  0  0  0  0  0  0  0  0  0
   31.8201   27.8928   16.6773 H   0  0  0  0  0  0  0  0  0  0  0  0
   31.1515   30.2265   16.1190 H   0  0  0  0  0  0  0  0  0  0  0  0
   28.9085   30.6733   15.1310 H   0  0  0  0  0  0  0  0  0  0  0  0
   27.3189   28.8027   14.7253 H   0  0  0  0  0  0  0  0  0  0  0  0
   24.3375   25.2064   14.5708 H   0  0  0  0  0  0  0  0  0  0  0  0
   24.8878   26.8458   12.0908 H   0  0  0  0  0  0  0  0  0  0  0  0
   25.0696   25.0522   12.4061 H   0  0  0  0  0  0  0  0  0  0  0  0
   23.2766   24.9102   11.1470 H   0  0  0  0  0  0  0  0  0  0  0  0
   23.2339   27.6338   10.9825 H   0  0  0  0  0  0  0  0  0  0  0  0
   21.7980   26.7273   10.4954 H   0  0  0  0  0  0  0  0  0  0  0  0
   22.1071   28.5601   12.7571 H   0  0  0  0  0  0  0  0  0  0  0  0
   20.6308   27.7156   12.2726 H   0  0  0  0  0  0  0  0  0  0  0  0
   21.0338   26.6360   14.3911 H   0  0  0  0  0  0  0  0  0  0  0  0
   23.3179   28.0206   14.4365 H   0  0  0  0  0  0  0  0  0  0  0  0
   22.9116   26.6276   15.5518 H   0  0  0  0  0  0  0  0  0  0  0  0
   22.5041   24.6002   13.6249 H   0  0  0  0  0  0  0  0  0  0  0  0
   21.2448   24.8810   12.6173 H   0  0  0  0  0  0  0  0  0  0  0  0
   27.9912   25.3725   17.1206 H   0  0  0  0  0  0  0  0  0  0  0  0
  2  1  1  0
  3  2  2  0
  4  3  1  0
  5  4  2  0
  6  5  1  0
  7  6  2  0
  7  2  1  0
  8  1  1  0
  9  8  2  0
 10  9  1  0
 11 10  2  0
 12 11  1  0
 13 12  2  0
 13  8  1  0
 15 14  2  0
 15  1  1  0
 16 15  1  0
 17 16  1  0
 18 17  1  0
 19 18  1  0
 20 19  1  0
 21 20  1  0
 22 21  1  0
 23 22  1  0
 23 17  1  0
 24 22  1  0
 24 19  1  0
 25  1  1  0
  3 26  1  0
  4 27  1  0
  5 28  1  0
  6 29  1  0
  7 30  1  0
  9 31  1  0
 10 32  1  0
 11 33  1  0
 12 34  1  0
 13 35  1  0
 17 36  1  1
 18 37  1  0
 18 38  1  0
 19 39  1  6
 20 40  1  0
 20 41  1  0
 21 42  1  0
 21 43  1  0
 22 44  1  1
 23 45  1  0
 23 46  1  0
 24 47  1  0
 24 48  1  0
 25 49  1  0
M  CHG  1  24   1
M  END
$$$$
=
     RDKit          3D

 27 27  0  0  0  0  0  0  0  0999 V2000
   17.2520   16.5280    4.8810 C   0  0  2  0  0  0  0  0  0  0  0  0
   16.3350   15.4000    4.4150 C   0  0  0  0  0  0  0  0  0  0  0  0
   16.6010   14.5480    3.3400 C   0  0  0  0  0  0  0  0  0  0  0  0
   15.6870   13.5560    2.9540 C   0  0  0  0  0  0  0  0  0  0  0  0
   14.4900   13.3690    3.6410 C   0  0  0  0  0  0  0  0  0  0  0  0
   14.1700   14.2670    4.6530 C   0  0  0  0  0  0  0  0  0  0  0  0
   15.0810   15.2540    5.0430 C   0  0  0  0  0  0  0  0  0  0  0  0
   13.5380   12.4570    3.1720 N   0  0  0  0  0  0  0  0  0  0  0  0
   18.7570   16.6130    4.4840 C   0  0  2  0  0  0  0  0  0  0  0  0
   19.6260   18.4570    5.4820 I   0  0  0  0  0  0  0  0  0  0  0  0
   19.0480   16.9600    2.7420 Cl  0  0  0  0  0  0  0  0  0  0  0  0
   19.6810   15.1320    4.9770 S   0  0  0  0  0  6  0  0  0  0  0  0
   19.1800   14.6840    6.2670 O   0  0  0  0  0  0  0  0  0  0  0  0
   19.7110   14.1870    3.8730 O   0  0  0  0  0  0  0  0  0  0  0  0
   21.3780   15.6200    5.2170 C   0  0  0  0  0  0  0  0  0  0  0  0
   17.1120   16.6240    6.3180 O   0  0  0  0  0  0  0  0  0  0  0  0
   16.8839   17.3768    4.2861 H   0  0  0  0  0  0  0  0  0  0  0  0
   17.5449   14.6571    2.7858 H   0  0  0  0  0  0  0  0  0  0  0  0
   15.9203   12.9135    2.0921 H   0  0  0  0  0  0  0  0  0  0  0  0
   13.1916   14.2006    5.1514 H   0  0  0  0  0  0  0  0  0  0  0  0
   14.8115   15.9358    5.8631 H   0  0  0  0  0  0  0  0  0  0  0  0
   12.6551   12.3243    3.6856 H   0  0  0  0  0  0  0  0  0  0  0  0
   13.7201   11.9184    2.3131 H   0  0  0  0  0  0  0  0  0  0  0  0
   21.5929   15.6818    6.2940 H   0  0  0  0  0  0  0  0  0  0  0  0
   22.0425   14.8765    4.7526 H   0  0  0  0  0  0  0  0  0  0  0  0
   21.5461   16.6029    4.7526 H   0  0  0  0  0  0  0  0  0  0  0  0
   17.8445   16.1217    6.7552 H   0  0  0  0  0  0  0  0  0  0  0  0
  2  1  1  0
  3  2  2  0
  4  3  1  0
  5  4  2  0
  6  5  1  0
  7  6  2  0
  7  2  1  0
  8  5  1  0
  9  1  1  0
 10  9  1  0
  9 11  1  6
 12  9  1  0
 13 12  2  0
 14 12  2  0
 15 12  1  0
 16  1  1  0
  1 17  1  6
  3 18  1  0
  4 19  1  0
  6 20  1  0
  7 21  1  0
  8 22  1  0
  8 23  1  0
 15 24  1  0
 15 25  1  0
 15 26  1  0
 16 27  1  0
M  END
$$$$
=
     RDKit          3D

 20 21  0  0  0  0  0  0  0  0999 V2000
   14.1250   14.0240    4.0220 C   0  0  0  0  0  0  0  0  0  0  0  0
   14.0620   12.8960    3.1870 C   0  0  0  0  0  0  0  0  0  0  0  0
   15.2100   12.3560    2.6070 C   0  0  0  0  0  0  0  0  0  0  0  0
   16.4430   12.9610    2.8250 C   0  0  0  0  0  0  0  0  0  0  0  0
   16.5140   14.1160    3.6120 C   0  0  0  0  0  0  0  0  0  0  0  0
   15.3630   14.6760    4.2020 C   0  0  0  0  0  0  0  0  0  0  0  0
   15.5110   15.9180    4.9810 C   0  0  0  0  0  0  0  0  0  0  0  0
   16.7170   16.4750    5.1320 C   0  0  0  0  0  0  0  0  0  0  0  0
   17.8340   15.9210    4.5730 N   0  0  0  0  0  0  0  0  0  0  0  0
   17.8340   14.7730    3.8130 C   0  0  0  0  0  0  0  0  0  0  0  0
   18.8670   14.3220    3.3290 O   0  0  0  0  0  0  0  0  0  0  0  0
   12.8970   14.5540    4.4710 N   0  0  0  0  0  0  0  0  0  0  0  0
   13.0867   12.4286    2.9863 H   0  0  0  0  0  0  0  0  0  0  0  0
   15.1402   11.4551    1.9796 H   0  0  0  0  0  0  0  0  0  0  0  0
   17.3554   12.5350    2.3823 H   0  0  0  0  0  0  0  0  0  0  0  0
   14.6279   16.3876    5.4390 H   0  0  0  0  0  0  0  0  0  0  0  0
   16.8122   17.4001    5.7195 H   0  0  0  0  0  0  0  0  0  0  0  0
   18.7356   16.3935    4.7306 H   0  0  0  0  0  0  0  0  0  0  0  0
   12.8867   15.3806    5.0854 H   0  0  0  0  0  0  0  0  0  0  0  0
   12.0108   14.1143    4.1844 H   0  0  0  0  0  0  0  0  0  0  0  0
  2  1  2  0
  3  2  1  0
  4  3  2  0
  5  4  1  0
  6  1  1  0
  6  5  2  0
  7  6  1  0
  8  7  2  0
  9  8  1  0
 10  9  1  0
 10  5  1  0
 11 10  2  0
 12  1  1  0
  2 13  1  0
  3 14  1  0
  4 15  1  0
  7 16  1  0
  8 17  1  0
  9 18  1  0
 12 19  1  0
 12 20  1  0
M  END
$$$$
=
     RDKit          3D

 38 39  0  0  0  0  0  0  0  0999 V2000
   18.9520   13.8070    3.1670 O   0  0  0  0  0  0  0  0  0  0  0  0
   18.6200   14.6510    3.9890 C   0  0  0  0  0  0  0  0  0  0  0  0
   17.3480   14.9570    4.4320 N   0  0  0  0  0  0  0  0  0  0  0  0
   19.6810   15.4670    4.6340 C   0  0  0  0  0  0  0  0  0  0  0  0
   20.1740   15.0280    5.8720 C   0  0  0  0  0  0  0  0  0  0  0  0
   21.1690   15.7530    6.5140 C   0  0  0  0  0  0  0  0  0  0  0  0
   21.6420   16.9320    5.9380 C   0  0  0  0  0  0  0  0  0  0  0  0
   21.1070   17.4240    4.7360 C   0  0  0  0  0  0  0  0  0  0  0  0
   20.1670   16.6480    4.0300 C   0  0  0  0  0  0  0  0  0  0  0  0
   19.6470   17.0870    2.6860 C   0  0  0  0  0  0  0  0  0  0  0  0
   21.6870   18.5750    4.1760 N   0  0  0  0  0  0  0  0  0  0  0  0
   16.1320   14.3890    4.0030 C   0  0  0  0  0  0  0  0  0  0  0  0
   14.9510   14.9950    4.4450 C   0  0  0  0  0  0  0  0  0  0  0  0
   13.7020   14.4950    4.0620 C   0  0  0  0  0  0  0  0  0  0  0  0
   13.6070   13.3800    3.2190 C   0  0  0  0  0  0  0  0  0  0  0  0
   14.7940   12.7770    2.7810 C   0  0  0  0  0  0  0  0  0  0  0  0
   16.0440   13.2780    3.1660 C   0  0  0  0  0  0  0  0  0  0  0  0
   12.2540   12.8280    2.8350 C   0  0  2  0  0  0  0  0  0  0  0  0
   11.1380   13.4590    3.6600 C   0  0  0  0  0  0  0  0  0  0  0  0
   12.2360   11.4140    3.0220 O   0  0  0  0  0  0  0  0  0  0  0  0
   17.2807   15.6835    5.1591 H   0  0  0  0  0  0  0  0  0  0  0  0
   19.7737   14.1127    6.3324 H   0  0  0  0  0  0  0  0  0  0  0  0
   21.5816   15.3999    7.4706 H   0  0  0  0  0  0  0  0  0  0  0  0
   22.4505   17.4879    6.4352 H   0  0  0  0  0  0  0  0  0  0  0  0
   18.8134   17.7907    2.8274 H   0  0  0  0  0  0  0  0  0  0  0  0
   20.4533   17.5817    2.1246 H   0  0  0  0  0  0  0  0  0  0  0  0
   19.2945   16.2091    2.1246 H   0  0  0  0  0  0  0  0  0  0  0  0
   21.3181   18.9612    3.2953 H   0  0  0  0  0  0  0  0  0  0  0  0
   22.4810   19.0325    4.6463 H   0  0  0  0  0  0  0  0  0  0  0  0
   15.0053   15.8756    5.1019 H   0  0  0  0  0  0  0  0  0  0  0  0
   12.7854   14.9820    4.4263 H   0  0  0  0  0  0  0  0  0  0  0  0
   14.7431   11.8960    2.1243 H   0  0  0  0  0  0  0  0  0  0  0  0
   16.9623   12.7915    2.8054 H   0  0  0  0  0  0  0  0  0  0  0  0
   12.0815   13.0704    1.7760 H   0  0  0  0  0  0  0  0  0  0  0  0
   11.3581   13.3345    4.7305 H   0  0  0  0  0  0  0  0  0  0  0  0
   11.0674   14.5307    3.4224 H   0  0  0  0  0  0  0  0  0  0  0  0
   10.1833   12.9670    3.4224 H   0  0  0  0  0  0  0  0  0  0  0  0
   12.2334   11.2092    3.9906 H   0  0  0  0  0  0  0  0  0  0  0  0
  2  1  2  0
  3  2  1  0
  4  2  1  0
  5  4  2  0
  6  5  1  0
  7  6  2  0
  8  7  1  0
  9  4  1  0
  9  8  2  0
 10  9  1  0
 11  8  1  0
 12  3  1  0
 13 12  2  0
 14 13  1  0
 15 14  2  0
 16 15  1  0
 17 16  2  0
 17 12  1  0
 18 15  1  0
 19 18  1  0
 20 18  1  0
  3 21  1  0
  5 22  1  0
  6 23  1  0
  7 24  1  0
 10 25  1  0
 10 26  1  0
 10 27  1  0
 11 28  1  0
 11 29  1  0
 13 30  1  0
 14 31  1  0
 16 32  1  0
 17 33  1  0
 18 34  1  6
 19 35  1  0
 19 36  1  0
 19 37  1  0
 20 38  1  0
M  END
$$$$
=
     RDKit          3D

 32 33  0  0  0  0  0  0  0  0999 V2000
   20.9640   17.0580    4.6940 C   0  0  1  0  0  0  0  0  0  0  0  0
   21.4100   16.6080    6.0830 C   0  0  0  0  0  0  0  0  0  0  0  0
   20.9640   15.1760    6.3610 C   0  0  0  0  0  0  0  0  0  0  0  0
   19.4570   15.0040    6.1440 C   0  0  0  0  0  0  0  0  0  0  0  0
   19.0020   15.4670    4.7400 C   0  0  2  0  0  0  0  0  0  0  0  0
   19.4540   16.9230    4.5050 C   0  0  0  0  0  0  0  0  0  0  0  0
   17.5090   15.3270    4.4600 C   0  0  0  0  0  0  0  0  0  0  0  0
   16.5970   16.1670    5.1320 C   0  0  0  0  0  0  0  0  0  0  0  0
   15.2210   16.0670    4.9160 C   0  0  0  0  0  0  0  0  0  0  0  0
   14.7260   15.1220    4.0240 C   0  0  0  0  0  0  0  0  0  0  0  0
   15.6050   14.2820    3.3490 C   0  0  0  0  0  0  0  0  0  0  0  0
   16.9840   14.3820    3.5650 C   0  0  0  0  0  0  0  0  0  0  0  0
   21.3480   18.4880    4.5100 N   0  0  0  0  0  4  0  0  0  0  0  0
   19.7190   14.6620    3.7940 O   0  0  0  0  0  0  0  0  0  0  0  0
   21.4560   16.4131    3.9510 H   0  0  0  0  0  0  0  0  0  0  0  0
   22.5070   16.6617    6.1439 H   0  0  0  0  0  0  0  0  0  0  0  0
   20.9505   17.2706    6.8313 H   0  0  0  0  0  0  0  0  0  0  0  0
   21.5023   14.4964    5.6840 H   0  0  0  0  0  0  0  0  0  0  0  0
   21.1898   14.9425    7.4120 H   0  0  0  0  0  0  0  0  0  0  0  0
   19.2028   13.9405    6.2639 H   0  0  0  0  0  0  0  0  0  0  0  0
   18.9398   15.6306    6.8855 H   0  0  0  0  0  0  0  0  0  0  0  0
   19.1905   17.2216    3.4796 H   0  0  0  0  0  0  0  0  0  0  0  0
   18.9473   17.5722    5.2343 H   0  0  0  0  0  0  0  0  0  0  0  0
   16.9776   16.9168    5.8412 H   0  0  0  0  0  0  0  0  0  0  0  0
   14.5296   16.7349    5.4507 H   0  0  0  0  0  0  0  0  0  0  0  0
   13.6426   15.0392    3.8529 H   0  0  0  0  0  0  0  0  0  0  0  0
   15.2144   13.5354    2.6419 H   0  0  0  0  0  0  0  0  0  0  0  0
   17.6669   13.7096    3.0250 H   0  0  0  0  0  0  0  0  0  0  0  0
   21.4674   18.9327    5.4313 H   0  0  0  0  0  0  0  0  0  0  0  0
   22.2330   18.5411    3.9858 H   0  0  0  0  0  0  0  0  0  0  0  0
   20.6086   18.9773    3.9858 H   0  0  0  0  0  0  0  0  0  0  0  0
   20.2934   14.0171    4.2779 H   0  0  0  0  0  0  0  0  0  0  0  0
  2  1  1  0
  3  2  1  0
  4  3  1  0
  5  4  1  0
  6  5  1  0
  6  1  1  0
  7  5  1  0
  8  7  2  0
  9  8  1  0
 10  9  2  0
 11 10  1  0
 12 11  2  0
 12  7  1  0
 13  1  1  0
  5 14  1  6
  1 15  1  6
  2 16  1  0
  2 17  1  0
  3 18  1  0
  3 19  1  0
  4 20  1  0
  4 21  1  0
  6 22  1  0
  6 23  1  0
  8 24  1  0
  9 25  1  0
 10 26  1  0
 11 27  1  0
 12 28  1  0
 13 29  1  0
 13 30  1  0
 13 31  1  0
 14 32  1  0
M  CHG  1  13   1
M  END
$$$$
=
     RDKit          3D

 46 48  0  0  0  0  0  0  0  0999 V2000
   13.7880   13.9090    4.1460 C   0  0  0  0  0  0  0  0  0  0  0  0
   14.3480   13.2450    3.0430 C   0  0  0  0  0  0  0  0  0  0  0  0
   15.7020   13.4020    2.7300 C   0  0  0  0  0  0  0  0  0  0  0  0
   16.5090   14.2180    3.5200 C   0  0  0  0  0  0  0  0  0  0  0  0
   15.9560   14.8590    4.6310 C   0  0  0  0  0  0  0  0  0  0  0  0
   14.6030   14.7050    4.9570 C   0  0  0  0  0  0  0  0  0  0  0  0
   11.9140   13.5740    5.5630 O   0  0  0  0  0  0  0  0  0  0  0  0
   12.3360   13.7190    4.4170 C   0  0  0  0  0  0  0  0  0  0  0  0
   11.4790   13.6450    3.3370 N   0  0  0  0  0  0  0  0  0  0  0  0
   10.0300   13.6920    3.4960 C   0  0  0  0  0  0  0  0  0  0  0  0
    9.2720   12.5410    2.8060 C   0  0  1  0  0  0  0  0  0  0  0  0
    8.2010   13.0410    1.8700 N   0  0  0  0  0  4  0  0  0  0  0  0
    8.3660   12.4010    0.5350 C   0  0  0  0  0  0  0  0  0  0  0  0
    9.2210   11.1860    0.8330 C   0  0  0  0  0  0  0  0  0  0  0  0
   10.1670   11.6910    1.9070 C   0  0  0  0  0  0  0  0  0  0  0  0
   16.9880   15.8930    5.6440 S   0  0  0  0  0  6  0  0  0  0  0  0
   16.7710   17.2470    5.1980 O   0  0  0  0  0  0  0  0  0  0  0  0
   16.7840   15.4900    7.0200 O   0  0  0  0  0  0  0  0  0  0  0  0
   18.5160   15.4380    5.1880 N   0  0  0  0  0  0  0  0  0  0  0  0
   19.5660   15.3730    6.2060 C   0  0  0  0  0  0  0  0  0  0  0  0
   20.6370   16.3660    5.8440 C   0  0  0  0  0  0  0  0  0  0  0  0
   21.7530   16.5400    6.5270 N   0  0  0  0  0  0  0  0  0  0  0  0
   22.5230   17.5120    5.9180 C   0  0  0  0  0  0  0  0  0  0  0  0
   21.9870   18.0670    4.7770 C   0  0  0  0  0  0  0  0  0  0  0  0
   20.4640   17.3530    4.4450 S   0  0  0  0  0  0  0  0  0  0  0  0
   13.7161   12.5955    2.4194 H   0  0  0  0  0  0  0  0  0  0  0  0
   16.1297   12.8814    1.8604 H   0  0  0  0  0  0  0  0  0  0  0  0
   17.5715   14.3561    3.2711 H   0  0  0  0  0  0  0  0  0  0  0  0
   14.1850   15.2055    5.8429 H   0  0  0  0  0  0  0  0  0  0  0  0
   11.8749   13.5539    2.3905 H   0  0  0  0  0  0  0  0  0  0  0  0
    9.8014   13.6575    4.5714 H   0  0  0  0  0  0  0  0  0  0  0  0
    9.6930   14.6212    3.0133 H   0  0  0  0  0  0  0  0  0  0  0  0
    8.8652   11.9635    3.6492 H   0  0  0  0  0  0  0  0  0  0  0  0
    7.2741   12.8040    2.2517 H   0  0  0  0  0  0  0  0  0  0  0  0
    8.2822   14.0631    1.7719 H   0  0  0  0  0  0  0  0  0  0  0  0
    7.3925   12.1047    0.1172 H   0  0  0  0  0  0  0  0  0  0  0  0
    8.8173   13.0720   -0.2107 H   0  0  0  0  0  0  0  0  0  0  0  0
    8.6077   10.3526    1.2061 H   0  0  0  0  0  0  0  0  0  0  0  0
    9.7407   10.7931   -0.0533 H   0  0  0  0  0  0  0  0  0  0  0  0
   10.6055   10.8533    2.4691 H   0  0  0  0  0  0  0  0  0  0  0  0
   11.0173   12.2548    1.4958 H   0  0  0  0  0  0  0  0  0  0  0  0
   18.4404   14.4993    4.7707 H   0  0  0  0  0  0  0  0  0  0  0  0
   19.1450   15.6226    7.1911 H   0  0  0  0  0  0  0  0  0  0  0  0
   19.9890   14.3585    6.2500 H   0  0  0  0  0  0  0  0  0  0  0  0
   23.4996   17.8222    6.3179 H   0  0  0  0  0  0  0  0  0  0  0  0
   22.4643   18.8505    4.1701 H   0  0  0  0  0  0  0  0  0  0  0  0
  2  1  2  0
  3  2  1  0
  4  3  2  0
  5  4  1  0
  6  5  2  0
  6  1  1  0
  8  1  1  0
  8  7  2  0
  9  8  1  0
 10  9  1  0
 11 10  1  0
 12 11  1  0
 13 12  1  0
 14 13  1  0
 15 14  1  0
 15 11  1  0
 16  5  1  0
 17 16  2  0
 18 16  2  0
 19 16  1  0
 20 19  1  0
 21 20  1  0
 22 21  2  0
 23 22  1  0
 24 23  2  0
 25 21  1  0
 25 24  1  0
  2 26  1  0
  3 27  1  0
  4 28  1  0
  6 29  1  0
  9 30  1  0
 10 31  1  0
 10 32  1  0
 11 33  1  1
 12 34  1  0
 12 35  1  0
 13 36  1  0
 13 37  1  0
 14 38  1  0
 14 39  1  0
 15 40  1  0
 15 41  1  0
 19 42  1  0
 20 43  1  0
 20 44  1  0
 23 45  1  0
 24 46  1  0
M  CHG  1  12   1
M  END
$$$$
=
     RDKit          3D

 54 57  0  0  0  0  0  0  0  0999 V2000
   10.8650   13.5350    4.2180 C   0  0  0  0  0  0  0  0  0  0  0  0
    9.6960   13.1310    3.5670 C   0  0  0  0  0  0  0  0  0  0  0  0
    9.7590   12.2700    2.4570 C   0  0  0  0  0  0  0  0  0  0  0  0
   11.0130   11.8440    1.9890 C   0  0  0  0  0  0  0  0  0  0  0  0
   12.1820   12.2560    2.6290 C   0  0  0  0  0  0  0  0  0  0  0  0
   12.1050   13.0830    3.7470 C   0  0  0  0  0  0  0  0  0  0  0  0
    9.9840   14.0730    6.3440 C   0  0  0  0  0  0  0  0  0  0  0  0
   10.8790   14.3960    5.2820 O   0  0  0  0  0  0  0  0  0  0  0  0
    8.5050   11.8690    1.7360 C   0  0  0  0  0  0  0  0  0  0  0  0
    8.6280   10.4810    1.2140 N   0  0  0  0  0  4  0  0  0  0  0  0
    7.5420   10.0400    0.2950 C   0  0  0  0  0  0  0  0  0  0  0  0
    8.0180    9.8450   -1.1040 C   0  0  0  0  0  0  0  0  0  0  0  0
    8.9540   10.5770   -1.8080 C   0  0  0  0  0  0  0  0  0  0  0  0
    9.1370   10.0840   -3.1330 C   0  0  0  0  0  0  0  0  0  0  0  0
    8.3430    8.9920   -3.3960 C   0  0  0  0  0  0  0  0  0  0  0  0
    7.3800    8.5630   -2.0510 S   0  0  0  0  0  0  0  0  0  0  0  0
   13.2520   13.4970    4.3760 O   0  0  0  0  0  0  0  0  0  0  0  0
   14.1020   14.2870    3.5250 C   0  0  0  0  0  0  0  0  0  0  0  0
   15.3980   13.6020    3.3100 C   0  0  0  0  0  0  0  0  0  0  0  0
   15.5090   12.4150    2.7360 N   0  0  0  0  0  0  0  0  0  0  0  0
   16.8370   12.1390    2.6630 N   0  0  0  0  0  0  0  0  0  0  0  0
   17.5510   13.1250    3.1740 N   0  0  0  0  0  0  0  0  0  0  0  0
   16.6710   14.0640    3.6210 N   0  0  0  0  0  0  0  0  0  0  0  0
   17.1600   15.2350    4.2660 C   0  0  0  0  0  0  0  0  0  0  0  0
   16.6010   15.7530    5.4370 C   0  0  0  0  0  0  0  0  0  0  0  0
   17.1270   16.9130    6.0240 C   0  0  0  0  0  0  0  0  0  0  0  0
   18.2270   17.5670    5.4640 C   0  0  0  0  0  0  0  0  0  0  0  0
   18.7890   17.0550    4.2930 C   0  0  0  0  0  0  0  0  0  0  0  0
   18.2680   15.8970    3.7050 C   0  0  0  0  0  0  0  0  0  0  0  0
   18.7610   18.8280    6.0780 C   0  0  0  0  0  0  0  0  0  0  0  0
    8.7197   13.4891    3.9255 H   0  0  0  0  0  0  0  0  0  0  0  0
   11.0736   11.1817    1.1128 H   0  0  0  0  0  0  0  0  0  0  0  0
   13.1620   11.9286    2.2517 H   0  0  0  0  0  0  0  0  0  0  0  0
   10.4804   14.2521    7.3091 H   0  0  0  0  0  0  0  0  0  0  0  0
    9.0857   14.7036    6.2711 H   0  0  0  0  0  0  0  0  0  0  0  0
    9.6955   13.0140    6.2711 H   0  0  0  0  0  0  0  0  0  0  0  0
    7.6546   11.9205    2.4318 H   0  0  0  0  0  0  0  0  0  0  0  0
    8.3443   12.5550    0.8912 H   0  0  0  0  0  0  0  0  0  0  0  0
    9.5210   10.4118    0.7054 H   0  0  0  0  0  0  0  0  0  0  0  0
    8.5682    9.8644    2.0369 H   0  0  0  0  0  0  0  0  0  0  0  0
    7.1335    9.0876    0.6640 H   0  0  0  0  0  0  0  0  0  0  0  0
    6.7776   10.8308    0.2793 H   0  0  0  0  0  0  0  0  0  0  0  0
    9.4955   11.4404   -1.3942 H   0  0  0  0  0  0  0  0  0  0  0  0
    9.8330   10.5259   -3.8612 H   0  0  0  0  0  0  0  0  0  0  0  0
    8.3295    8.4583   -4.3578 H   0  0  0  0  0  0  0  0  0  0  0  0
   13.6056   14.4362    2.5548 H   0  0  0  0  0  0  0  0  0  0  0  0
   14.2874   15.2577    4.0080 H   0  0  0  0  0  0  0  0  0  0  0  0
   15.7419   15.2472    5.9020 H   0  0  0  0  0  0  0  0  0  0  0  0
   16.6665   17.3138    6.9390 H   0  0  0  0  0  0  0  0  0  0  0  0
   19.6465   17.5650    3.8298 H   0  0  0  0  0  0  0  0  0  0  0  0
   18.7314   15.4982    2.7906 H   0  0  0  0  0  0  0  0  0  0  0  0
   18.7260   18.7454    7.1743 H   0  0  0  0  0  0  0  0  0  0  0  0
   19.8012   18.9812    5.7549 H   0  0  0  0  0  0  0  0  0  0  0  0
   18.1472   19.6817    5.7549 H   0  0  0  0  0  0  0  0  0  0  0  0
  2  1  2  0
  3  2  1  0
  4  3  2  0
  5  4  1  0
  6  1  1  0
  6  5  2  0
  8  1  1  0
  8  7  1  0
  9  3  1  0
 10  9  1  0
 11 10  1  0
 12 11  1  0
 13 12  2  0
 14 13  1  0
 15 14  2  0
 16 15  1  0
 16 12  1  0
 17  6  1  0
 18 17  1  0
 19 18  1  0
 20 19  2  0
 21 20  1  0
 22 21  2  0
 23 19  1  0
 23 22  1  0
 24 23  1  0
 25 24  2  0
 26 25  1  0
 27 26  2  0
 28 27  1  0
 29 24  1  0
 29 28  2  0
 30 27  1  0
  2 31  1  0
  4 32  1  0
  5 33  1  0
  7 34  1  0
  7 35  1  0
  7 36  1  0
  9 37  1  0
  9 38  1  0
 10 39  1  0
 10 40  1  0
 11 41  1  0
 11 42  1  0
 13 43  1  0
 14 44  1  0
 15 45  1  0
 18 46  1  0
 18 47  1  0
 25 48  1  0
 26 49  1  0
 28 50  1  0
 29 51  1  0
 30 52  1  0
 30 53  1  0
 30 54  1  0
M  CHG  1  10   1
M  END
$$$$
=
     RDKit          3D

 43 44  0  0  0  0  0  0  0  0999 V2000
   25.8000   24.4600   13.6810 C   0  0  2  0  0  0  0  0  0  0  0  0
   25.4760   25.8290   14.2930 C   0  0  2  0  0  0  0  0  0  0  0  0
   25.1240   25.5240   12.8570 C   0  0  2  0  0  0  0  0  0  0  0  0
   26.5900   26.8030   14.6090 C   0  0  0  0  0  0  0  0  0  0  0  0
   27.0400   27.0110   15.9230 C   0  0  0  0  0  0  0  0  0  0  0  0
   28.0600   27.9250   16.2080 C   0  0  0  0  0  0  0  0  0  0  0  0
   28.6740   28.6460   15.1820 C   0  0  0  0  0  0  0  0  0  0  0  0
   28.2510   28.4380   13.8660 C   0  0  0  0  0  0  0  0  0  0  0  0
   27.2310   27.5240   13.5860 C   0  0  0  0  0  0  0  0  0  0  0  0
   29.7600   29.6460   15.4890 C   0  0  0  0  0  0  0  0  0  0  0  0
   30.8510   29.0440   16.3630 C   0  0  0  0  0  0  0  0  0  0  0  0
   25.0420   23.3090   14.2830 N   0  0  0  0  0  4  0  0  0  0  0  0
   23.4110   25.1140   12.5150 S   0  0  0  0  0  6  0  0  0  0  0  0
   22.7530   25.1110   13.8110 O   0  0  0  0  0  0  0  0  0  0  0  0
   23.5020   23.8840   11.7620 O   0  0  0  0  0  0  0  0  0  0  0  0
   22.7890   26.4270   11.5010 C   0  0  0  0  0  0  0  0  0  0  0  0
   27.2310   24.0740   13.4130 C   0  0  0  0  0  0  0  0  0  0  0  0
   27.6630   24.1640   12.2730 O   0  0  0  0  0  0  0  0  0  0  0  0
   27.9100   23.6960   14.5210 O   0  0  0  0  0  0  0  0  0  0  0  0
   29.9060   24.9520   14.9050 C   0  0  0  0  0  0  0  0  0  0  0  0
   29.3360   23.6570   14.3590 C   0  0  0  0  0  0  0  0  0  0  0  0
   24.9226   26.1782   15.1772 H   0  0  0  0  0  0  0  0  0  0  0  0
   25.3208   26.0531   11.9129 H   0  0  0  0  0  0  0  0  0  0  0  0
   26.5807   26.4432   16.7456 H   0  0  0  0  0  0  0  0  0  0  0  0
   28.3810   28.0769   17.2491 H   0  0  0  0  0  0  0  0  0  0  0  0
   28.7239   28.9973   13.0453 H   0  0  0  0  0  0  0  0  0  0  0  0
   26.9229   27.3653   12.5420 H   0  0  0  0  0  0  0  0  0  0  0  0
   30.2081   29.9866   14.5439 H   0  0  0  0  0  0  0  0  0  0  0  0
   29.3072   30.4857   16.0366 H   0  0  0  0  0  0  0  0  0  0  0  0
   30.5924   29.1867   17.4226 H   0  0  0  0  0  0  0  0  0  0  0  0
   30.9406   27.9687   16.1490 H   0  0  0  0  0  0  0  0  0  0  0  0
   31.8085   29.5415   16.1490 H   0  0  0  0  0  0  0  0  0  0  0  0
   25.0828   23.3709   15.3103 H   0  0  0  0  0  0  0  0  0  0  0  0
   24.0597   23.3465   13.9755 H   0  0  0  0  0  0  0  0  0  0  0  0
   25.4644   22.4214   13.9755 H   0  0  0  0  0  0  0  0  0  0  0  0
   22.4062   27.2351   12.1416 H   0  0  0  0  0  0  0  0  0  0  0  0
   23.5990   26.8150   10.8659 H   0  0  0  0  0  0  0  0  0  0  0  0
   21.9757   26.0460   10.8659 H   0  0  0  0  0  0  0  0  0  0  0  0
   29.8934   24.9234   16.0046 H   0  0  0  0  0  0  0  0  0  0  0  0
   30.9411   25.0741   14.5532 H   0  0  0  0  0  0  0  0  0  0  0  0
   29.2970   25.7978   14.5532 H   0  0  0  0  0  0  0  0  0  0  0  0
   29.5879   23.5587   13.2928 H   0  0  0  0  0  0  0  0  0  0  0  0
   29.7582   22.7965   14.8987 H   0  0  0  0  0  0  0  0  0  0  0  0
  2  1  1  0
  3  2  1  0
  3  1  1  0
  4  2  1  0
  5  4  2  0
  6  5  1  0
  7  6  2  0
  8  7  1  0
  9  4  1  0
  9  8  2  0
 10  7  1  0
 11 10  1  0
 12  1  1  0
 13  3  1  0
 14 13  2  0
 15 13  2  0
 16 13  1  0
  1 17  1  6
 18 17  2  0
 19 17  1  0
 21 20  1  0
 21 19  1  0
  2 22  1  1
  3 23  1  6
  5 24  1  0
  6 25  1  0
  8 26  1  0
  9 27  1  0
 10 28  1  0
 10 29  1  0
 11 30  1  0
 11 31  1  0
 11 32  1  0
 12 33  1  0
 12 34  1  0
 12 35  1  0
 16 36  1  0
 16 37  1  0
 16 38  1  0
 20 39  1  0
 20 40  1  0
 20 41  1  0
 21 42  1  0
 21 43  1  0
M  CHG  1  12   1
M  END
$$$$
=
     RDKit          3D

 34 35  0  0  0  0  0  0  0  0999 V2000
   18.3440   16.3890    3.8850 N   0  0  0  0  0  0  0  0  0  0  0  0
   21.8970   18.5530    4.7550 C   0  0  0  0  0  0  0  0  0  0  0  0
   21.1410   17.9670    5.7680 C   0  0  0  0  0  0  0  0  0  0  0  0
   19.9740   17.2630    5.4660 C   0  0  0  0  0  0  0  0  0  0  0  0
   19.5750   17.0900    4.1390 C   0  0  0  0  0  0  0  0  0  0  0  0
   20.3520   17.6210    3.0980 C   0  0  0  0  0  0  0  0  0  0  0  0
   21.5220   18.3310    3.4260 C   0  0  0  0  0  0  0  0  0  0  0  0
   19.9880   17.4550    1.6490 C   0  0  0  0  0  0  0  0  0  0  0  0
   23.1240   19.1590    5.0490 N   0  0  0  0  0  0  0  0  0  0  0  0
   18.4310   14.7070    4.1170 S   0  0  0  0  0  6  0  0  0  0  0  0
   18.7950   14.4990    5.5040 O   0  0  0  0  0  0  0  0  0  0  0  0
   19.1530   14.0580    3.0500 O   0  0  0  0  0  0  0  0  0  0  0  0
   16.7270   14.2460    3.9580 C   0  0  0  0  0  0  0  0  0  0  0  0
   16.3750   13.2770    3.0080 C   0  0  0  0  0  0  0  0  0  0  0  0
   15.0310   12.9470    2.8040 C   0  0  0  0  0  0  0  0  0  0  0  0
   14.0300   13.5870    3.5350 C   0  0  0  0  0  0  0  0  0  0  0  0
   14.3670   14.5600    4.4760 C   0  0  0  0  0  0  0  0  0  0  0  0
   15.7180   14.8840    4.6790 C   0  0  0  0  0  0  0  0  0  0  0  0
   16.0040   15.8700    5.7010 N   0  0  0  0  0  4  0  0  0  0  0  0
   16.0930   15.4580    6.8630 O   0  0  0  0  0  0  0  0  0  0  0  0
   16.0480   17.0520    5.3410 O   0  0  0  0  0  1  0  0  0  0  0  0
   17.4815   16.8669    3.5872 H   0  0  0  0  0  0  0  0  0  0  0  0
   21.4665   18.0599    6.8146 H   0  0  0  0  0  0  0  0  0  0  0  0
   19.3645   16.8416    6.2790 H   0  0  0  0  0  0  0  0  0  0  0  0
   22.1573   18.7210    2.6171 H   0  0  0  0  0  0  0  0  0  0  0  0
   18.9896   16.9997    1.5716 H   0  0  0  0  0  0  0  0  0  0  0  0
   19.9813   18.4391    1.1575 H   0  0  0  0  0  0  0  0  0  0  0  0
   20.7267   16.8047    1.1575 H   0  0  0  0  0  0  0  0  0  0  0  0
   23.6787   19.5907    4.2961 H   0  0  0  0  0  0  0  0  0  0  0  0
   23.4722   19.1733    6.0183 H   0  0  0  0  0  0  0  0  0  0  0  0
   17.1581   12.7746    2.4212 H   0  0  0  0  0  0  0  0  0  0  0  0
   14.7622   12.1792    2.0636 H   0  0  0  0  0  0  0  0  0  0  0  0
   12.9747   13.3243    3.3693 H   0  0  0  0  0  0  0  0  0  0  0  0
   13.5814   15.0689    5.0538 H   0  0  0  0  0  0  0  0  0  0  0  0
  3  2  2  0
  4  3  1  0
  5  1  1  0
  5  4  2  0
  6  5  1  0
  7  6  2  0
  7  2  1  0
  8  6  1  0
  9  2  1  0
 10  1  1  0
 11 10  2  0
 12 10  2  0
 13 10  1  0
 14 13  2  0
 15 14  1  0
 16 15  2  0
 17 16  1  0
 18 17  2  0
 18 13  1  0
 19 18  1  0
 20 19  2  0
 21 19  1  0
  1 22  1  0
  3 23  1  0
  4 24  1  0
  7 25  1  0
  8 26  1  0
  8 27  1  0
  8 28  1  0
  9 29  1  0
  9 30  1  0
 14 31  1  0
 15 32  1  0
 16 33  1  0
 17 34  1  0
M  CHG  2  19   1  21  -1
M  END
$$$$
=
     RDKit          3D

 33 34  0  0  0  0  0  0  0  0999 V2000
   18.6560   17.3260    5.0960 C   0  0  0  0  0  0  0  0  0  0  0  0
   18.8220   16.4470    4.0190 C   0  0  0  0  0  0  0  0  0  0  0  0
   17.7950   15.5680    3.6580 C   0  0  0  0  0  0  0  0  0  0  0  0
   16.5790   15.5460    4.3590 C   0  0  0  0  0  0  0  0  0  0  0  0
   16.4240   16.4330    5.4370 C   0  0  0  0  0  0  0  0  0  0  0  0
   17.4490   17.3150    5.8050 C   0  0  0  0  0  0  0  0  0  0  0  0
   15.5000   14.6210    3.9770 C   0  0  0  0  0  0  0  0  0  0  0  0
   15.7650   13.4690    3.2160 C   0  0  0  0  0  0  0  0  0  0  0  0
   14.7410   12.5860    2.8490 C   0  0  0  0  0  0  0  0  0  0  0  0
   13.4280   12.8100    3.2640 C   0  0  0  0  0  0  0  0  0  0  0  0
   13.1580   13.9850    3.9770 C   0  0  0  0  0  0  0  0  0  0  0  0
   14.1710   14.8690    4.3480 C   0  0  0  0  0  0  0  0  0  0  0  0
   11.8950   14.2630    4.3360 F   0  0  0  0  0  0  0  0  0  0  0  0
   12.3890   11.9950    2.7920 N   0  0  0  0  0  0  0  0  0  0  0  0
   19.7790   18.2410    5.4380 C   0  0  0  0  0  0  0  0  0  0  0  0
   19.6480   19.2320    6.1390 O   0  0  0  0  0  0  0  0  0  0  0  0
   20.9330   17.8130    4.8690 O   0  0  0  0  0  0  0  0  0  0  0  0
   23.2600   18.3990    5.1860 C   0  0  0  0  0  0  0  0  0  0  0  0
   22.0530   17.6780    5.7560 C   0  0  0  0  0  0  0  0  0  0  0  0
   19.7654   16.4474    3.4533 H   0  0  0  0  0  0  0  0  0  0  0  0
   17.9430   14.8826    2.8105 H   0  0  0  0  0  0  0  0  0  0  0  0
   15.4807   16.4354    6.0028 H   0  0  0  0  0  0  0  0  0  0  0  0
   17.3047   18.0004    6.6532 H   0  0  0  0  0  0  0  0  0  0  0  0
   16.7977   13.2565    2.9022 H   0  0  0  0  0  0  0  0  0  0  0  0
   14.9743   11.7084    2.2282 H   0  0  0  0  0  0  0  0  0  0  0  0
   13.9257   15.7662    4.9352 H   0  0  0  0  0  0  0  0  0  0  0  0
   11.4211   12.1639    3.1010 H   0  0  0  0  0  0  0  0  0  0  0  0
   12.5938   11.2275    2.1363 H   0  0  0  0  0  0  0  0  0  0  0  0
   23.8862   18.7731    6.0093 H   0  0  0  0  0  0  0  0  0  0  0  0
   23.8451   17.7023    4.5677 H   0  0  0  0  0  0  0  0  0  0  0  0
   22.9239   19.2444    4.5677 H   0  0  0  0  0  0  0  0  0  0  0  0
   21.7974   18.1132    6.7334 H   0  0  0  0  0  0  0  0  0  0  0  0
   22.2932   16.6109    5.8724 H   0  0  0  0  0  0  0  0  0  0  0  0
  2  1  2  0
  3  2  1  0
  4  3  2  0
  5  4  1  0
  6  5  2  0
  6  1  1  0
  7  4  1  0
  8  7  2  0
  9  8  1  0
 10  9  2  0
 11 10  1  0
 12 11  2  0
 12  7  1  0
 13 11  1  0
 14 10  1  0
 15  1  1  0
 16 15  2  0
 17 15  1  0
 19 17  1  0
 19 18  1  0
  2 20  1  0
  3 21  1  0
  5 22  1  0
  6 23  1  0
  8 24  1  0
  9 25  1  0
 12 26  1  0
 14 27  1  0
 14 28  1  0
 18 29  1  0
 18 30  1  0
 18 31  1  0
 19 32  1  0
 19 33  1  0
M  END
$$$$
=
     RDKit          3D

 19 20  0  0  0  0  0  0  0  0999 V2000
   22.4890   18.0970    5.1180 C   0  0  0  0  0  0  0  0  0  0  0  0
   21.5260   18.0400    4.0160 C   0  0  0  0  0  0  0  0  0  0  0  0
   20.5520   17.1130    4.0210 C   0  0  0  0  0  0  0  0  0  0  0  0
   20.4780   16.2180    5.0850 N   0  0  0  0  0  0  0  0  0  0  0  0
   21.3660   16.2300    6.1470 C   0  0  0  0  0  0  0  0  0  0  0  0
   22.3980   17.2090    6.1340 C   0  0  0  0  0  0  0  0  0  0  0  0
   21.0490   15.2800    6.9970 N   0  0  0  0  0  0  0  0  0  0  0  0
   19.9450   14.6230    6.5010 N   0  0  0  0  0  0  0  0  0  0  0  0
   19.6080   15.1870    5.3570 C   0  0  0  0  0  0  0  0  0  0  0  0
   18.4820   14.7960    4.4820 C   0  0  0  0  0  0  0  0  0  0  0  0
   23.4550   19.0740    5.0510 N   0  0  0  0  0  0  0  0  0  0  0  0
   21.5995   18.7558    3.1840 H   0  0  0  0  0  0  0  0  0  0  0  0
   19.8249   17.0625    3.1972 H   0  0  0  0  0  0  0  0  0  0  0  0
   23.1275   17.2440    6.9565 H   0  0  0  0  0  0  0  0  0  0  0  0
   17.6230   14.4977    5.1010 H   0  0  0  0  0  0  0  0  0  0  0  0
   18.1980   15.6481    3.8470 H   0  0  0  0  0  0  0  0  0  0  0  0
   18.7873   13.9513    3.8470 H   0  0  0  0  0  0  0  0  0  0  0  0
   24.1564   19.1570    5.8007 H   0  0  0  0  0  0  0  0  0  0  0  0
   23.4769   19.7225    4.2511 H   0  0  0  0  0  0  0  0  0  0  0  0
  2  1  1  0
  3  2  2  0
  4  3  1  0
  5  4  1  0
  6  5  1  0
  6  1  2  0
  7  5  2  0
  8  7  1  0
  9  4  1  0
  9  8  2  0
 10  9  1  0
 11  1  1  0
  2 12  1  0
  3 13  1  0
  6 14  1  0
 10 15  1  0
 10 16  1  0
 10 17  1  0
 11 18  1  0
 11 19  1  0
M  END
$$$$
=
     RDKit          3D

 35 35  0  0  0  0  0  0  0  0999 V2000
   14.8050   14.1810    4.1750 C   0  0  0  0  0  0  0  0  0  0  0  0
   14.8860   15.0090    5.3030 C   0  0  0  0  0  0  0  0  0  0  0  0
   16.0050   15.8180    5.5060 C   0  0  0  0  0  0  0  0  0  0  0  0
   17.0600   15.8190    4.5850 C   0  0  0  0  0  0  0  0  0  0  0  0
   16.9900   14.9730    3.4720 C   0  0  0  0  0  0  0  0  0  0  0  0
   15.8720   14.1620    3.2660 C   0  0  0  0  0  0  0  0  0  0  0  0
   13.5540   13.4040    3.8930 C   0  0  0  0  0  0  0  0  0  0  0  0
   13.8880   12.0120    3.5190 N   0  0  0  0  0  4  0  0  0  0  0  0
   18.2250   16.7650    4.7570 C   0  0  0  0  0  0  0  0  0  0  0  0
   19.6630   15.7930    5.2400 S   0  0  0  0  0  6  0  0  0  0  0  0
   19.3220   14.9450    6.3620 O   0  0  0  0  0  0  0  0  0  0  0  0
   20.2770   15.2480    4.0460 O   0  0  0  0  0  0  0  0  0  0  0  0
   20.7160   16.9810    5.7780 N   0  0  0  0  0  0  0  0  0  0  0  0
   21.8950   17.3400    4.9730 C   0  0  0  0  0  0  0  0  0  0  0  0
   22.9310   17.9600    5.9060 C   0  0  0  0  0  0  0  0  0  0  0  0
   21.4920   18.3240    3.8820 C   0  0  0  0  0  0  0  0  0  0  0  0
   14.0628   15.0213    6.0325 H   0  0  0  0  0  0  0  0  0  0  0  0
   16.0588   16.4605    6.3972 H   0  0  0  0  0  0  0  0  0  0  0  0
   17.8226   14.9468    2.7536 H   0  0  0  0  0  0  0  0  0  0  0  0
   15.8283   13.5044    2.3853 H   0  0  0  0  0  0  0  0  0  0  0  0
   12.9210   13.3962    4.7926 H   0  0  0  0  0  0  0  0  0  0  0  0
   13.0173   13.8799    3.0590 H   0  0  0  0  0  0  0  0  0  0  0  0
   14.0228   11.4503    4.3718 H   0  0  0  0  0  0  0  0  0  0  0  0
   13.1191   11.6121    2.9624 H   0  0  0  0  0  0  0  0  0  0  0  0
   14.7546   12.0046    2.9624 H   0  0  0  0  0  0  0  0  0  0  0  0
   18.4270   17.2850    3.8090 H   0  0  0  0  0  0  0  0  0  0  0  0
   17.9963   17.5178    5.5257 H   0  0  0  0  0  0  0  0  0  0  0  0
   20.1607   17.8410    5.8917 H   0  0  0  0  0  0  0  0  0  0  0  0
   22.3205   16.4501    4.4862 H   0  0  0  0  0  0  0  0  0  0  0  0
   22.6358   17.7833    6.9508 H   0  0  0  0  0  0  0  0  0  0  0  0
   23.9132   17.5011    5.7199 H   0  0  0  0  0  0  0  0  0  0  0  0
   22.9908   19.0425    5.7199 H   0  0  0  0  0  0  0  0  0  0  0  0
   21.1135   19.2481    4.3433 H   0  0  0  0  0  0  0  0  0  0  0  0
   22.3669   18.5576    3.2575 H   0  0  0  0  0  0  0  0  0  0  0  0
   20.7046   17.8768    3.2575 H   0  0  0  0  0  0  0  0  0  0  0  0
  2  1  2  0
  3  2  1  0
  4  3  2  0
  5  4  1  0
  6  1  1  0
  6  5  2  0
  7  1  1  0
  8  7  1  0
  9  4  1  0
 10  9  1  0
 11 10  2  0
 12 10  2  0
 13 10  1  0
 14 13  1  0
 15 14  1  0
 16 14  1  0
  2 17  1  0
  3 18  1  0
  5 19  1  0
  6 20  1  0
  7 21  1  0
  7 22  1  0
  8 23  1  0
  8 24  1  0
  8 25  1  0
  9 26  1  0
  9 27  1  0
 13 28  1  0
 14 29  1  0
 15 30  1  0
 15 31  1  0
 15 32  1  0
 16 33  1  0
 16 34  1  0
 16 35  1  0
M  CHG  1   8   1
M  END
$$$$
=
     RDKit          3D

 22 22  0  0  0  0  0  0  0  0999 V2000
   20.0500   16.5520    4.9980 C   0  0  0  0  0  0  0  0  0  0  0  0
   19.5360   15.3260    4.6230 C   0  0  0  0  0  0  0  0  0  0  0  0
   18.2310   15.0070    4.6800 N   0  0  0  0  0  0  0  0  0  0  0  0
   17.3640   15.9570    5.1110 C   0  0  0  0  0  0  0  0  0  0  0  0
   17.7840   17.1840    5.5080 N   0  0  0  0  0  0  0  0  0  0  0  0
   19.1000   17.4550    5.4320 C   0  0  0  0  0  0  0  0  0  0  0  0
   15.8680   15.6120    5.2120 C   0  0  0  0  0  0  0  0  0  0  0  0
   15.0510   16.6090    4.7610 F   0  0  0  0  0  0  0  0  0  0  0  0
   15.5180   14.5020    4.4980 F   0  0  0  0  0  0  0  0  0  0  0  0
   15.4780   15.3650    6.4980 F   0  0  0  0  0  0  0  0  0  0  0  0
   21.8840   18.3060    4.8240 C   0  0  0  0  0  0  0  0  0  0  0  0
   21.5210   16.8280    4.9620 C   0  0  1  0  0  0  0  0  0  0  0  0
   22.2060   16.2970    6.1770 N   0  0  0  0  0  4  0  0  0  0  0  0
   20.2379   14.5632    4.2549 H   0  0  0  0  0  0  0  0  0  0  0  0
   19.4394   18.4568    5.7340 H   0  0  0  0  0  0  0  0  0  0  0  0
   21.9934   18.7516    5.8237 H   0  0  0  0  0  0  0  0  0  0  0  0
   22.8322   18.4009    4.2745 H   0  0  0  0  0  0  0  0  0  0  0  0
   21.0877   18.8294    4.2745 H   0  0  0  0  0  0  0  0  0  0  0  0
   21.8678   16.3104    4.0555 H   0  0  0  0  0  0  0  0  0  0  0  0
   21.7388   16.6592    7.0204 H   0  0  0  0  0  0  0  0  0  0  0  0
   22.1607   15.2680    6.1745 H   0  0  0  0  0  0  0  0  0  0  0  0
   23.1912   16.5973    6.1745 H   0  0  0  0  0  0  0  0  0  0  0  0
  2  1  2  0
  3  2  1  0
  4  3  2  0
  5  4  1  0
  6  1  1  0
  6  5  2  0
  7  4  1  0
  8  7  1  0
  9  7  1  0
 10  7  1  0
 12  1  1  0
 12 11  1  0
 13 12  1  0
  2 14  1  0
  6 15  1  0
 11 16  1  0
 11 17  1  0
 11 18  1  0
 12 19  1  6
 13 20  1  0
 13 21  1  0
 13 22  1  0
M  CHG  1  13   1
M  END
$$$$
=
     RDKit          3D

 38 39  0  0  0  0  0  0  0  0999 V2000
   15.1760   14.4840    4.1750 C   0  0  0  0  0  0  0  0  0  0  0  0
   14.0070   13.7050    4.1440 C   0  0  0  0  0  0  0  0  0  0  0  0
   13.9400   12.5710    3.3340 C   0  0  0  0  0  0  0  0  0  0  0  0
   15.0360   12.2090    2.5550 C   0  0  0  0  0  0  0  0  0  0  0  0
   16.2010   12.9790    2.5790 C   0  0  0  0  0  0  0  0  0  0  0  0
   16.2720   14.1290    3.3740 C   0  0  0  0  0  0  0  0  0  0  0  0
   15.2150   15.7050    5.0200 C   0  0  0  0  0  0  0  0  0  0  0  0
   14.9680   16.8350    4.6300 O   0  0  0  0  0  0  0  0  0  0  0  0
   16.8240   15.8870    6.7100 C   0  0  0  0  0  0  0  0  0  0  0  0
   15.5690   15.3550    6.2830 O   0  0  0  0  0  0  0  0  0  0  0  0
   17.4220   14.8720    3.4620 O   0  0  0  0  0  0  0  0  0  0  0  0
   18.5740   14.1310    3.8740 C   0  0  0  0  0  0  0  0  0  0  0  0
   19.7260   15.1280    4.0700 C   0  0  0  0  0  0  0  0  0  0  0  0
   20.2660   15.0840    5.5150 C   0  0  0  0  0  0  0  0  0  0  0  0
   20.8820   16.3920    5.9870 C   0  0  0  0  0  0  0  0  0  0  0  0
   21.4830   17.0950    4.8200 N   0  0  0  0  0  4  0  0  0  0  0  0
   20.4950   17.5300    3.7860 C   0  0  0  0  0  0  0  0  0  0  0  0
   19.3230   16.5540    3.6890 C   0  0  0  0  0  0  0  0  0  0  0  0
   13.1417   13.9902    4.7604 H   0  0  0  0  0  0  0  0  0  0  0  0
   13.0230   11.9639    3.3108 H   0  0  0  0  0  0  0  0  0  0  0  0
   14.9840   11.3134    1.9185 H   0  0  0  0  0  0  0  0  0  0  0  0
   17.0671   12.6803    1.9702 H   0  0  0  0  0  0  0  0  0  0  0  0
   16.8607   15.9026    7.8093 H   0  0  0  0  0  0  0  0  0  0  0  0
   17.6394   15.2571    6.3248 H   0  0  0  0  0  0  0  0  0  0  0  0
   16.9383   16.9110    6.3248 H   0  0  0  0  0  0  0  0  0  0  0  0
   18.3652   13.6093    4.8197 H   0  0  0  0  0  0  0  0  0  0  0  0
   18.8399   13.3797    3.1158 H   0  0  0  0  0  0  0  0  0  0  0  0
   20.5328   14.8186    3.3893 H   0  0  0  0  0  0  0  0  0  0  0  0
   19.4330   14.8317    6.1877 H   0  0  0  0  0  0  0  0  0  0  0  0
   21.0679   14.3312    5.5315 H   0  0  0  0  0  0  0  0  0  0  0  0
   20.1032   17.0248    6.4375 H   0  0  0  0  0  0  0  0  0  0  0  0
   21.6597   16.1866    6.7374 H   0  0  0  0  0  0  0  0  0  0  0  0
   21.9762   17.9304    5.1661 H   0  0  0  0  0  0  0  0  0  0  0  0
   22.1109   16.4197    4.3612 H   0  0  0  0  0  0  0  0  0  0  0  0
   20.1107   18.5251    4.0544 H   0  0  0  0  0  0  0  0  0  0  0  0
   21.0038   17.5579    2.8111 H   0  0  0  0  0  0  0  0  0  0  0  0
   18.9482   16.5520    2.6548 H   0  0  0  0  0  0  0  0  0  0  0  0
   18.5475   16.8860    4.3949 H   0  0  0  0  0  0  0  0  0  0  0  0
  2  1  2  0
  3  2  1  0
  4  3  2  0
  5  4  1  0
  6  5  2  0
  6  1  1  0
  7  1  1  0
  8  7  2  0
 10  7  1  0
 10  9  1  0
 11  6  1  0
 12 11  1  0
 13 12  1  0
 14 13  1  0
 15 14  1  0
 16 15  1  0
 17 16  1  0
 18 13  1  0
 18 17  1  0
  2 19  1  0
  3 20  1  0
  4 21  1  0
  5 22  1  0
  9 23  1  0
  9 24  1  0
  9 25  1  0
 12 26  1  0
 12 27  1  0
 13 28  1  0
 14 29  1  0
 14 30  1  0
 15 31  1  0
 15 32  1  0
 16 33  1  0
 16 34  1  0
 17 35  1  0
 17 36  1  0
 18 37  1  0
 18 38  1  0
M  CHG  1  16   1
M  END
$$$$
=
     RDKit          3D

 22 23  0  0  0  0  0  0  0  0999 V2000
   18.5440   14.7760    3.6110 C   0  0  0  0  0  0  0  0  0  0  0  0
   17.0910   14.9600    3.9670 C   0  0  0  0  0  0  0  0  0  0  0  0
   16.4830   15.8550    4.8320 C   0  0  0  0  0  0  0  0  0  0  0  0
   15.0690   15.6790    4.8930 C   0  0  0  0  0  0  0  0  0  0  0  0
   14.6370   14.6560    4.0820 C   0  0  0  0  0  0  0  0  0  0  0  0
   15.9270   13.9110    3.2520 S   0  0  0  0  0  0  0  0  0  0  0  0
   19.4980   15.1670    4.7130 C   0  0  0  0  0  0  0  0  0  0  0  0
   19.6790   14.5420    5.9340 C   0  0  0  0  0  0  0  0  0  0  0  0
   20.6690   15.1830    6.7350 C   0  0  0  0  0  0  0  0  0  0  0  0
   21.2160   16.2750    6.1040 C   0  0  0  0  0  0  0  0  0  0  0  0
   20.5400   16.5280    4.5580 S   0  0  0  0  0  0  0  0  0  0  0  0
   18.7690   13.3820    3.1490 N   0  0  0  0  0  4  0  0  0  0  0  0
   18.7698   15.4732    2.7907 H   0  0  0  0  0  0  0  0  0  0  0  0
   17.0297   16.6164    5.4076 H   0  0  0  0  0  0  0  0  0  0  0  0
   14.4010   16.2910    5.5169 H   0  0  0  0  0  0  0  0  0  0  0  0
   13.5841   14.3540    3.9807 H   0  0  0  0  0  0  0  0  0  0  0  0
   19.1207   13.6491    6.2517 H   0  0  0  0  0  0  0  0  0  0  0  0
   20.9608   14.8437    7.7398 H   0  0  0  0  0  0  0  0  0  0  0  0
   21.9980   16.9112    6.5443 H   0  0  0  0  0  0  0  0  0  0  0  0
   18.8691   12.7617    3.9652 H   0  0  0  0  0  0  0  0  0  0  0  0
   17.9667   13.0749    2.5808 H   0  0  0  0  0  0  0  0  0  0  0  0
   19.6272   13.3429    2.5808 H   0  0  0  0  0  0  0  0  0  0  0  0
  2  1  1  0
  3  2  2  0
  4  3  1  0
  5  4  2  0
  6  5  1  0
  6  2  1  0
  7  1  1  0
  8  7  2  0
  9  8  1  0
 10  9  2  0
 11  7  1  0
 11 10  1  0
 12  1  1  0
  1 13  1  0
  3 14  1  0
  4 15  1  0
  5 16  1  0
  8 17  1  0
  9 18  1  0
 10 19  1  0
 12 20  1  0
 12 21  1  0
 12 22  1  0
M  CHG  1  12   1
M  END
$$$$
=
     RDKit          3D

 42 42  0  0  0  0  0  0  0  0999 V2000
   19.6030   15.4510    3.6550 N   0  0  1  0  0  4  0  0  0  0  0  0
   19.4000   16.5870    2.6800 C   0  0  0  0  0  0  0  0  0  0  0  0
   19.9530   15.8990    5.0810 C   0  0  0  0  0  0  0  0  0  0  0  0
   21.3840   16.5200    5.2980 C   0  0  2  0  0  0  0  0  0  0  0  0
   22.1390   15.8400    6.4110 N   0  0  0  0  0  4  0  0  0  0  0  0
   21.4140   18.0530    5.5190 C   0  0  0  0  0  0  0  0  0  0  0  0
   22.1510   18.7890    4.3910 C   0  0  0  0  0  0  0  0  0  0  0  0
   20.0000   18.6340    5.6350 C   0  0  0  0  0  0  0  0  0  0  0  0
   18.3430   14.5420    3.6950 C   0  0  0  0  0  0  0  0  0  0  0  0
   17.0580   15.3490    3.9010 C   0  0  0  0  0  0  0  0  0  0  0  0
   15.8530   14.4790    3.6640 C   0  0  0  0  0  0  0  0  0  0  0  0
   14.6130   14.8160    4.2260 C   0  0  0  0  0  0  0  0  0  0  0  0
   13.5050   13.9900    4.0350 C   0  0  0  0  0  0  0  0  0  0  0  0
   13.6250   12.8230    3.2840 C   0  0  0  0  0  0  0  0  0  0  0  0
   14.8510   12.4820    2.7190 C   0  0  0  0  0  0  0  0  0  0  0  0
   15.9620   13.3040    2.9080 C   0  0  0  0  0  0  0  0  0  0  0  0
   20.4184   14.9292    3.3033 H   0  0  0  0  0  0  0  0  0  0  0  0
   19.2330   17.5216    3.2356 H   0  0  0  0  0  0  0  0  0  0  0  0
   20.2937   16.6913    2.0473 H   0  0  0  0  0  0  0  0  0  0  0  0
   18.5255   16.3753    2.0473 H   0  0  0  0  0  0  0  0  0  0  0  0
   19.2128   16.6543    5.3839 H   0  0  0  0  0  0  0  0  0  0  0  0
   19.9440   14.9783    5.6828 H   0  0  0  0  0  0  0  0  0  0  0  0
   21.8859   16.3338    4.3370 H   0  0  0  0  0  0  0  0  0  0  0  0
   21.7781   16.1650    7.3193 H   0  0  0  0  0  0  0  0  0  0  0  0
   22.0146   14.8202    6.3372 H   0  0  0  0  0  0  0  0  0  0  0  0
   23.1403   16.0700    6.3372 H   0  0  0  0  0  0  0  0  0  0  0  0
   21.9575   18.2075    6.4628 H   0  0  0  0  0  0  0  0  0  0  0  0
   22.8661   19.5032    4.8252 H   0  0  0  0  0  0  0  0  0  0  0  0
   22.6921   18.0601    3.7698 H   0  0  0  0  0  0  0  0  0  0  0  0
   21.4228   19.3311    3.7698 H   0  0  0  0  0  0  0  0  0  0  0  0
   19.7344   18.7431    6.6969 H   0  0  0  0  0  0  0  0  0  0  0  0
   19.9669   19.6186    5.1457 H   0  0  0  0  0  0  0  0  0  0  0  0
   19.2842   17.9571    5.1457 H   0  0  0  0  0  0  0  0  0  0  0  0
   18.2698   13.9949    2.7435 H   0  0  0  0  0  0  0  0  0  0  0  0
   18.4498   13.8516    4.5446 H   0  0  0  0  0  0  0  0  0  0  0  0
   17.0316   15.7331    4.9314 H   0  0  0  0  0  0  0  0  0  0  0  0
   17.0419   16.1858    3.1872 H   0  0  0  0  0  0  0  0  0  0  0  0
   14.5136   15.7362    4.8204 H   0  0  0  0  0  0  0  0  0  0  0  0
   12.5353   14.2607    4.4781 H   0  0  0  0  0  0  0  0  0  0  0  0
   12.7513   12.1709    3.1373 H   0  0  0  0  0  0  0  0  0  0  0  0
   14.9437   11.5625    2.1224 H   0  0  0  0  0  0  0  0  0  0  0  0
   16.9287   13.0285    2.4613 H   0  0  0  0  0  0  0  0  0  0  0  0
  2  1  1  0
  3  1  1  0
  4  3  1  0
  5  4  1  0
  6  4  1  0
  7  6  1  0
  8  6  1  0
  9  1  1  0
 10  9  1  0
 11 10  1  0
 12 11  2  0
 13 12  1  0
 14 13  2  0
 15 14  1  0
 16 15  2  0
 16 11  1  0
  1 17  1  6
  2 18  1  0
  2 19  1  0
  2 20  1  0
  3 21  1  0
  3 22  1  0
  4 23  1  6
  5 24  1  0
  5 25  1  0
  5 26  1  0
  6 27  1  0
  7 28  1  0
  7 29  1  0
  7 30  1  0
  8 31  1  0
  8 32  1  0
  8 33  1  0
  9 34  1  0
  9 35  1  0
 10 36  1  0
 10 37  1  0
 12 38  1  0
 13 39  1  0
 14 40  1  0
 15 41  1  0
 16 42  1  0
M  CHG  2   1   1   5   1
M  END
$$$$
=
     RDKit          3D

 27 28  0  0  0  0  0  0  0  0999 V2000
   18.2030   16.7260    5.1390 C   0  0  0  0  0  0  0  0  0  0  0  0
   17.0710   15.9280    4.9620 C   0  0  0  0  0  0  0  0  0  0  0  0
   17.1080   14.7360    4.3360 N   0  0  0  0  0  0  0  0  0  0  0  0
   18.2940   14.2960    3.8610 C   0  0  0  0  0  0  0  0  0  0  0  0
   19.4690   15.0220    4.0030 C   0  0  0  0  0  0  0  0  0  0  0  0
   19.4410   16.2610    4.6570 C   0  0  0  0  0  0  0  0  0  0  0  0
   18.3070   12.9720    3.1570 C   0  0  0  0  0  0  0  0  0  0  0  0
   20.6930   17.0220    4.8050 C   0  0  0  0  0  0  0  0  0  0  0  0
   21.0730   17.9840    3.8540 C   0  0  0  0  0  0  0  0  0  0  0  0
   22.2630   18.7040    4.0000 C   0  0  0  0  0  0  0  0  0  0  0  0
   23.0900   18.4780    5.1000 C   0  0  0  0  0  0  0  0  0  0  0  0
   22.7270   17.5330    6.0560 C   0  0  0  0  0  0  0  0  0  0  0  0
   21.5410   16.8180    5.9040 C   0  0  0  0  0  0  0  0  0  0  0  0
   21.2150   15.9150    6.8420 F   0  0  0  0  0  0  0  0  0  0  0  0
   15.7960   16.3140    5.3740 N   0  0  0  0  0  0  0  0  0  0  0  0
   18.0340   19.0120    6.3520 N   0  0  0  0  0  0  0  0  0  0  0  0
   18.0870   17.9920    5.7990 C   0  0  0  0  0  0  0  0  0  0  0  0
   20.4154   14.6273    3.6048 H   0  0  0  0  0  0  0  0  0  0  0  0
   18.3150   12.1614    3.9006 H   0  0  0  0  0  0  0  0  0  0  0  0
   17.4097   12.8829    2.5270 H   0  0  0  0  0  0  0  0  0  0  0  0
   19.2059   12.9005    2.5270 H   0  0  0  0  0  0  0  0  0  0  0  0
   20.4267   18.1731    2.9842 H   0  0  0  0  0  0  0  0  0  0  0  0
   22.5477   19.4512    3.2446 H   0  0  0  0  0  0  0  0  0  0  0  0
   24.0262   19.0446    5.2120 H   0  0  0  0  0  0  0  0  0  0  0  0
   23.3736   17.3518    6.9272 H   0  0  0  0  0  0  0  0  0  0  0  0
   14.9932   15.6874    5.2196 H   0  0  0  0  0  0  0  0  0  0  0  0
   15.6570   17.2257    5.8327 H   0  0  0  0  0  0  0  0  0  0  0  0
  2  1  2  0
  3  2  1  0
  4  3  2  0
  5  4  1  0
  6  5  2  0
  6  1  1  0
  7  4  1  0
  8  6  1  0
  9  8  2  0
 10  9  1  0
 11 10  2  0
 12 11  1  0
 13  8  1  0
 13 12  2  0
 14 13  1  0
 15  2  1  0
 17  1  1  0
 17 16  3  0
  5 18  1  0
  7 19  1  0
  7 20  1  0
  7 21  1  0
  9 22  1  0
 10 23  1  0
 11 24  1  0
 12 25  1  0
 15 26  1  0
 15 27  1  0
M  END
$$$$
=
     RDKit          3D

 36 38  0  0  0  0  0  0  0  0999 V2000
   19.3940   15.6920    3.6540 C   0  0  0  0  0  0  0  0  0  0  0  0
   19.2130   16.6360    2.6580 N   0  0  0  0  0  0  0  0  0  0  0  0
   20.0620   17.6060    2.9090 C   0  0  0  0  0  0  0  0  0  0  0  0
   20.7880   17.3330    4.0250 N   0  0  0  0  0  0  0  0  0  0  0  0
   20.3920   16.1090    4.5220 C   0  0  0  0  0  0  0  0  0  0  0  0
   21.0010   15.5350    5.7450 C   0  0  0  0  0  0  0  0  0  0  0  0
   22.2840   16.2200    6.0890 N   0  0  0  0  0  4  0  0  0  0  0  0
   22.1990   17.7200    6.0030 C   0  0  0  0  0  0  0  0  0  0  0  0
   21.8550   18.1490    4.5760 C   0  0  0  0  0  0  0  0  0  0  0  0
   18.5380   14.4550    3.5970 C   0  0  0  0  0  0  0  0  0  0  0  0
   14.5380   15.5270    3.8420 O   0  0  0  0  0  0  0  0  0  0  0  0
   15.3180   16.1140    4.8960 C   0  0  0  0  0  0  0  0  0  0  0  0
   16.7040   15.4620    5.0480 C   0  0  0  0  0  0  0  0  0  0  0  0
   17.0870   14.8190    3.7360 N   0  0  0  0  0  4  0  0  0  0  0  0
   16.1070   13.7370    3.3340 C   0  0  0  0  0  0  0  0  0  0  0  0
   14.6860   14.1070    3.7880 C   0  0  0  0  0  0  0  0  0  0  0  0
   20.1707   18.5151    2.2993 H   0  0  0  0  0  0  0  0  0  0  0  0
   20.2978   15.6506    6.5830 H   0  0  0  0  0  0  0  0  0  0  0  0
   21.2153   14.4723    5.5587 H   0  0  0  0  0  0  0  0  0  0  0  0
   22.5447   15.9619    7.0515 H   0  0  0  0  0  0  0  0  0  0  0  0
   22.9873   15.9142    5.4014 H   0  0  0  0  0  0  0  0  0  0  0  0
   21.4176   18.0795    6.6887 H   0  0  0  0  0  0  0  0  0  0  0  0
   23.1717   18.1510    6.2825 H   0  0  0  0  0  0  0  0  0  0  0  0
   22.7495   18.0442    3.9444 H   0  0  0  0  0  0  0  0  0  0  0  0
   21.5167   19.1954    4.5990 H   0  0  0  0  0  0  0  0  0  0  0  0
   18.6946   13.9493    2.6328 H   0  0  0  0  0  0  0  0  0  0  0  0
   18.8201   13.7859    4.4233 H   0  0  0  0  0  0  0  0  0  0  0  0
   15.4549   17.1834    4.6778 H   0  0  0  0  0  0  0  0  0  0  0  0
   14.7729   15.9557    5.8383 H   0  0  0  0  0  0  0  0  0  0  0  0
   17.4461   16.2291    5.3141 H   0  0  0  0  0  0  0  0  0  0  0  0
   16.6737   14.7012    5.8419 H   0  0  0  0  0  0  0  0  0  0  0  0
   16.9965   15.5587    3.0250 H   0  0  0  0  0  0  0  0  0  0  0  0
   16.1202   13.6240    2.2399 H   0  0  0  0  0  0  0  0  0  0  0  0
   16.4010   12.7922    3.8146 H   0  0  0  0  0  0  0  0  0  0  0  0
   13.9577   13.6929    3.0752 H   0  0  0  0  0  0  0  0  0  0  0  0
   14.5101   13.6900    4.7906 H   0  0  0  0  0  0  0  0  0  0  0  0
  2  1  1  0
  3  2  2  0
  4  3  1  0
  5  1  2  0
  5  4  1  0
  6  5  1  0
  7  6  1  0
  8  7  1  0
  9  4  1  0
  9  8  1  0
 10  1  1  0
 12 11  1  0
 13 12  1  0
 14 13  1  0
 14 10  1  0
 15 14  1  0
 16 15  1  0
 16 11  1  0
  3 17  1  0
  6 18  1  0
  6 19  1  0
  7 20  1  0
  7 21  1  0
  8 22  1  0
  8 23  1  0
  9 24  1  0
  9 25  1  0
 10 26  1  0
 10 27  1  0
 12 28  1  0
 12 29  1  0
 13 30  1  0
 13 31  1  0
 14 32  1  0
 15 33  1  0
 15 34  1  0
 16 35  1  0
 16 36  1  0
M  CHG  2   7   1  14   1
M  END
$$$$
=
     RDKit          3D

 27 27  0  0  0  0  0  0  0  0999 V2000
   16.9670   15.4910    4.3030 C   0  0  0  0  0  0  0  0  0  0  0  0
   15.9030   15.7970    5.1300 C   0  0  0  0  0  0  0  0  0  0  0  0
   14.7400   15.0350    5.0220 C   0  0  0  0  0  0  0  0  0  0  0  0
   14.6650   13.9950    4.0840 C   0  0  0  0  0  0  0  0  0  0  0  0
   15.7940   13.7820    3.2970 C   0  0  0  0  0  0  0  0  0  0  0  0
   16.9340   14.5000    3.3910 N   0  0  0  0  0  0  0  0  0  0  0  0
   13.4250   13.1440    3.9980 C   0  0  1  0  0  0  0  0  0  0  0  0
   12.1060   13.9010    3.8700 C   0  0  0  0  0  0  0  0  0  0  0  0
   13.5240   12.1980    2.8490 N   0  0  0  0  0  4  0  0  0  0  0  0
   18.0940   16.2680    4.4330 O   0  0  0  0  0  0  0  0  0  0  0  0
   19.0850   16.0570    3.4160 C   0  0  0  0  0  0  0  0  0  0  0  0
   19.2720   18.3890    3.6690 F   0  0  0  0  0  0  0  0  0  0  0  0
   19.6740   17.3550    2.8850 C   0  0  0  0  0  0  0  0  0  0  0  0
   19.1800   17.6030    1.6430 F   0  0  0  0  0  0  0  0  0  0  0  0
   15.9717   16.6211    5.8554 H   0  0  0  0  0  0  0  0  0  0  0  0
   13.8802   15.2500    5.6735 H   0  0  0  0  0  0  0  0  0  0  0  0
   15.7547   12.9759    2.5496 H   0  0  0  0  0  0  0  0  0  0  0  0
   13.3943   12.6250    4.9674 H   0  0  0  0  0  0  0  0  0  0  0  0
   11.7137   14.1262    4.8727 H   0  0  0  0  0  0  0  0  0  0  0  0
   12.2739   14.8402    3.3225 H   0  0  0  0  0  0  0  0  0  0  0  0
   11.3798   13.2823    3.3225 H   0  0  0  0  0  0  0  0  0  0  0  0
   13.6246   11.2363    3.2038 H   0  0  0  0  0  0  0  0  0  0  0  0
   12.6714   12.2647    2.2749 H   0  0  0  0  0  0  0  0  0  0  0  0
   14.3443   12.4398    2.2749 H   0  0  0  0  0  0  0  0  0  0  0  0
   19.8986   15.4497    3.8394 H   0  0  0  0  0  0  0  0  0  0  0  0
   18.5911   15.5499    2.5740 H   0  0  0  0  0  0  0  0  0  0  0  0
   20.7699   17.2605    2.8718 H   0  0  0  0  0  0  0  0  0  0  0  0
  2  1  2  0
  3  2  1  0
  4  3  2  0
  5  4  1  0
  6  5  2  0
  6  1  1  0
  7  4  1  0
  8  7  1  0
  9  7  1  0
 10  1  1  0
 11 10  1  0
 13 11  1  0
 13 12  1  0
 14 13  1  0
  2 15  1  0
  3 16  1  0
  5 17  1  0
  7 18  1  1
  8 19  1  0
  8 20  1  0
  8 21  1  0
  9 22  1  0
  9 23  1  0
  9 24  1  0
 11 25  1  0
 11 26  1  0
 13 27  1  0
M  CHG  1   9   1
M  END
$$$$
=
     RDKit          3D

 35 36  0  0  0  0  0  0  0  0999 V2000
   19.8540   16.5550    3.1370 C   0  0  1  0  0  0  0  0  0  0  0  0
   20.8720   17.0550    4.1420 C   0  0  0  0  0  0  0  0  0  0  0  0
   21.5840   18.2380    3.8810 C   0  0  0  0  0  0  0  0  0  0  0  0
   22.5500   18.6990    4.7760 C   0  0  0  0  0  0  0  0  0  0  0  0
   22.8230   17.9840    5.9400 C   0  0  0  0  0  0  0  0  0  0  0  0
   22.1330   16.8060    6.2090 C   0  0  0  0  0  0  0  0  0  0  0  0
   21.1650   16.3400    5.3170 C   0  0  0  0  0  0  0  0  0  0  0  0
   18.5970   16.1570    3.8570 N   0  0  0  0  0  4  0  0  0  0  0  0
   18.1810   14.7440    3.7290 C   0  0  0  0  0  0  0  0  0  0  0  0
   16.6880   14.6220    3.8260 C   0  0  0  0  0  0  0  0  0  0  0  0
   15.9480   15.5550    4.5690 C   0  0  0  0  0  0  0  0  0  0  0  0
   14.5650   15.4190    4.6960 C   0  0  0  0  0  0  0  0  0  0  0  0
   13.9110   14.3470    4.0900 C   0  0  0  0  0  0  0  0  0  0  0  0
   14.6360   13.4120    3.3570 C   0  0  0  0  0  0  0  0  0  0  0  0
   16.0200   13.5430    3.2260 C   0  0  0  0  0  0  0  0  0  0  0  0
   19.4680   17.6140    2.0720 C   0  0  0  0  0  0  0  0  0  0  0  0
   20.4120   17.5490    0.9880 O   0  0  0  0  0  0  0  0  0  0  0  0
   20.3240   15.7057    2.6195 H   0  0  0  0  0  0  0  0  0  0  0  0
   21.3777   18.8062    2.9620 H   0  0  0  0  0  0  0  0  0  0  0  0
   23.0972   19.6290    4.5620 H   0  0  0  0  0  0  0  0  0  0  0  0
   23.5832   18.3503    6.6457 H   0  0  0  0  0  0  0  0  0  0  0  0
   22.3507   16.2403    7.1269 H   0  0  0  0  0  0  0  0  0  0  0  0
   20.6270   15.4057    5.5353 H   0  0  0  0  0  0  0  0  0  0  0  0
   18.7351   16.3527    4.8587 H   0  0  0  0  0  0  0  0  0  0  0  0
   17.8449   16.7032    3.4133 H   0  0  0  0  0  0  0  0  0  0  0  0
   18.5129   14.3563    2.7546 H   0  0  0  0  0  0  0  0  0  0  0  0
   18.6379   14.1645    4.5447 H   0  0  0  0  0  0  0  0  0  0  0  0
   16.4613   16.3984    5.0540 H   0  0  0  0  0  0  0  0  0  0  0  0
   13.9906   16.1577    5.2743 H   0  0  0  0  0  0  0  0  0  0  0  0
   12.8209   14.2401    4.1913 H   0  0  0  0  0  0  0  0  0  0  0  0
   14.1173   12.5676    2.8796 H   0  0  0  0  0  0  0  0  0  0  0  0
   16.5889   12.7979    2.6505 H   0  0  0  0  0  0  0  0  0  0  0  0
   18.4563   17.4058    1.6938 H   0  0  0  0  0  0  0  0  0  0  0  0
   19.4842   18.6180    2.5212 H   0  0  0  0  0  0  0  0  0  0  0  0
   21.3300   17.4858    1.3532 H   0  0  0  0  0  0  0  0  0  0  0  0
  2  1  1  0
  3  2  2  0
  4  3  1  0
  5  4  2  0
  6  5  1  0
  7  2  1  0
  7  6  2  0
  8  1  1  0
  9  8  1  0
 10  9  1  0
 11 10  2  0
 12 11  1  0
 13 12  2  0
 14 13  1  0
 15 14  2  0
 15 10  1  0
 16  1  1  0
 17 16  1  0
  1 18  1  6
  3 19  1  0
  4 20  1  0
  5 21  1  0
  6 22  1  0
  7 23  1  0
  8 24  1  0
  8 25  1  0
  9 26  1  0
  9 27  1  0
 11 28  1  0
 12 29  1  0
 13 30  1  0
 14 31  1  0
 15 32  1  0
 16 33  1  0
 16 34  1  0
 17 35  1  0
M  CHG  1   8   1
M  END
$$$$
=
     RDKit          3D

 41 44  0  0  0  0  0  0  0  0999 V2000
   15.2400   14.5080    4.5630 C   0  0  0  0  0  0  0  0  0  0  0  0
   14.8090   14.9070    5.6380 O   0  0  0  0  0  0  0  0  0  0  0  0
   14.7340   13.2950    3.7990 C   0  0  1  0  0  0  0  0  0  0  0  0
   13.2240   13.3400    3.6060 C   0  0  0  0  0  0  0  0  0  0  0  0
   12.4120   14.2320    4.3220 C   0  0  0  0  0  0  0  0  0  0  0  0
   11.0260   14.2340    4.1470 C   0  0  0  0  0  0  0  0  0  0  0  0
   10.4330   13.3410    3.2580 C   0  0  0  0  0  0  0  0  0  0  0  0
   11.2240   12.4460    2.5420 C   0  0  0  0  0  0  0  0  0  0  0  0
   12.6090   12.4440    2.7150 C   0  0  0  0  0  0  0  0  0  0  0  0
   15.5220   13.0990    2.4910 C   0  0  0  0  0  0  0  0  0  0  0  0
   16.6290   12.2090    2.6250 O   0  0  0  0  0  0  0  0  0  0  0  0
   16.2640   15.1200    3.8900 O   0  0  0  0  0  0  0  0  0  0  0  0
   17.4790   15.3240    4.6290 C   0  0  2  0  0  0  0  0  0  0  0  0
   17.4850   16.7830    5.1300 C   0  0  0  0  0  0  0  0  0  0  0  0
   18.8880   17.3630    5.3260 C   0  0  1  0  0  0  0  0  0  0  0  0
   19.8320   16.1950    5.5260 N   0  0  0  0  0  4  0  0  0  0  0  0
   19.9760   15.6910    4.1040 C   0  0  1  0  0  0  0  0  0  0  0  0
   18.6990   14.9160    3.7720 C   0  0  0  0  0  0  0  0  0  0  0  0
   20.0560   16.9490    3.2700 C   0  0  1  0  0  0  0  0  0  0  0  0
   19.3660   18.0120    4.0470 C   0  0  2  0  0  0  0  0  0  0  0  0
   20.7880   18.0370    3.8530 O   0  0  0  0  0  0  0  0  0  0  0  0
   14.9222   12.3974    4.4064 H   0  0  0  0  0  0  0  0  0  0  0  0
   12.8718   14.9379    5.0293 H   0  0  0  0  0  0  0  0  0  0  0  0
   10.4021   14.9420    4.7123 H   0  0  0  0  0  0  0  0  0  0  0  0
    9.3415   13.3426    3.1216 H   0  0  0  0  0  0  0  0  0  0  0  0
   10.7569   11.7401    1.8395 H   0  0  0  0  0  0  0  0  0  0  0  0
   13.2265   11.7326    2.1471 H   0  0  0  0  0  0  0  0  0  0  0  0
   14.8390   12.6940    1.7297 H   0  0  0  0  0  0  0  0  0  0  0  0
   15.9272   14.0810    2.2055 H   0  0  0  0  0  0  0  0  0  0  0  0
   16.8167   12.0581    3.5853 H   0  0  0  0  0  0  0  0  0  0  0  0
   17.5418   14.6791    5.5179 H   0  0  0  0  0  0  0  0  0  0  0  0
   16.9524   17.4043    4.3949 H   0  0  0  0  0  0  0  0  0  0  0  0
   16.9967   16.7853    6.1157 H   0  0  0  0  0  0  0  0  0  0  0  0
   18.8654   18.0780    6.1616 H   0  0  0  0  0  0  0  0  0  0  0  0
   20.7364   16.5017    5.9118 H   0  0  0  0  0  0  0  0  0  0  0  0
   19.4956   15.4875    6.1947 H   0  0  0  0  0  0  0  0  0  0  0  0
   20.8452   15.0382    3.9359 H   0  0  0  0  0  0  0  0  0  0  0  0
   18.4531   15.0902    2.7141 H   0  0  0  0  0  0  0  0  0  0  0  0
   18.9023   13.8570    3.9891 H   0  0  0  0  0  0  0  0  0  0  0  0
   20.0608   16.5121    2.2605 H   0  0  0  0  0  0  0  0  0  0  0  0
   18.5895   18.7805    3.9187 H   0  0  0  0  0  0  0  0  0  0  0  0
  2  1  2  0
  3  1  1  0
  4  3  1  0
  5  4  2  0
  6  5  1  0
  7  6  2  0
  8  7  1  0
  9  8  2  0
  9  4  1  0
 10  3  1  0
 11 10  1  0
 12  1  1  0
 13 12  1  0
 14 13  1  0
 15 14  1  0
 16 15  1  0
 17 16  1  0
 18 17  1  0
 18 13  1  0
 19 17  1  0
 20 19  1  0
 20 15  1  0
 21 20  1  0
 21 19  1  0
  3 22  1  1
  5 23  1  0
  6 24  1  0
  7 25  1  0
  8 26  1  0
  9 27  1  0
 10 28  1  0
 10 29  1  0
 11 30  1  0
 13 31  1  1
 14 32  1  0
 14 33  1  0
 15 34  1  1
 16 35  1  0
 16 36  1  0
 17 37  1  1
 18 38  1  0
 18 39  1  0
 19 40  1  6
 20 41  1  6
M  CHG  1  16   1
M  END
$$$$
=
     RDKit          3D

 28 29  0  0  0  0  0  0  0  0999 V2000
   18.8440   13.6290    3.1380 O   0  0  0  0  0  0  0  0  0  0  0  0
   18.5910   14.7170    3.6420 C   0  0  0  0  0  0  0  0  0  0  0  0
   17.2360   15.0580    3.8950 N   0  0  0  0  0  4  0  0  0  0  0  0
   16.2020   14.2910    3.6340 C   0  0  0  0  0  0  0  0  0  0  0  0
   16.2070   13.0850    3.1060 N   0  0  0  0  0  0  0  0  0  0  0  0
   14.8710   12.4990    2.8680 C   0  0  0  0  0  0  0  0  0  0  0  0
   13.8840   13.2300    3.7760 C   0  0  0  0  0  0  0  0  0  0  0  0
   14.6270   14.8790    4.0180 S   0  0  0  0  0  0  0  0  0  0  0  0
   19.6910   15.7350    3.9900 C   0  0  1  0  0  0  0  0  0  0  0  0
   19.6300   16.9760    3.1100 C   0  0  0  0  0  0  0  0  0  0  0  0
   20.1900   18.0820    3.9880 C   0  0  0  0  0  0  0  0  0  0  0  0
   19.5780   17.8030    5.3440 C   0  0  0  0  0  0  0  0  0  0  0  0
   19.5620   16.3020    5.4160 N   0  0  0  0  0  4  0  0  0  0  0  0
   17.0492   15.9792    4.3163 H   0  0  0  0  0  0  0  0  0  0  0  0
   17.0782   12.5862    2.8756 H   0  0  0  0  0  0  0  0  0  0  0  0
   14.5836   12.6334    1.8147 H   0  0  0  0  0  0  0  0  0  0  0  0
   14.8749   11.4209    3.0864 H   0  0  0  0  0  0  0  0  0  0  0  0
   12.8992   13.3137    3.2931 H   0  0  0  0  0  0  0  0  0  0  0  0
   13.7173   12.7014    4.7261 H   0  0  0  0  0  0  0  0  0  0  0  0
   20.6181   15.1584    3.8553 H   0  0  0  0  0  0  0  0  0  0  0  0
   20.2450   16.8451    2.2074 H   0  0  0  0  0  0  0  0  0  0  0  0
   18.6111   17.1930    2.7569 H   0  0  0  0  0  0  0  0  0  0  0  0
   21.2878   18.0293    4.0340 H   0  0  0  0  0  0  0  0  0  0  0  0
   19.9542   19.0882    3.6111 H   0  0  0  0  0  0  0  0  0  0  0  0
   20.1942   18.2293    6.1493 H   0  0  0  0  0  0  0  0  0  0  0  0
   18.5801   18.2497    5.4652 H   0  0  0  0  0  0  0  0  0  0  0  0
   18.6764   15.9850    5.8357 H   0  0  0  0  0  0  0  0  0  0  0  0
   20.3461   15.9712    5.9962 H   0  0  0  0  0  0  0  0  0  0  0  0
  2  1  2  0
  3  2  1  0
  4  3  2  0
  5  4  1  0
  6  5  1  0
  7  6  1  0
  8  7  1  0
  8  4  1  0
  9  2  1  0
 10  9  1  0
 11 10  1  0
 12 11  1  0
 13  9  1  0
 13 12  1  0
  3 14  1  0
  5 15  1  0
  6 16  1  0
  6 17  1  0
  7 18  1  0
  7 19  1  0
  9 20  1  1
 10 21  1  0
 10 22  1  0
 11 23  1  0
 11 24  1  0
 12 25  1  0
 12 26  1  0
 13 27  1  0
 13 28  1  0
M  CHG  2   3   1  13   1
M  END
$$$$
=
     RDKit          3D

 28 29  0  0  0  0  0  0  0  0999 V2000
   14.1720   14.4650    4.2900 C   0  0  0  0  0  0  0  0  0  0  0  0
   14.7840   13.5250    3.4590 C   0  0  0  0  0  0  0  0  0  0  0  0
   16.1520   13.6060    3.1730 C   0  0  0  0  0  0  0  0  0  0  0  0
   16.9480   14.6110    3.7410 C   0  0  0  0  0  0  0  0  0  0  0  0
   16.3400   15.5060    4.6350 C   0  0  0  0  0  0  0  0  0  0  0  0
   14.9710   15.4210    4.9150 C   0  0  0  0  0  0  0  0  0  0  0  0
   12.8320   14.3100    4.6630 N   0  0  0  0  0  0  0  0  0  0  0  0
   18.4420   14.6380    3.4610 C   0  0  1  0  0  0  0  0  0  0  0  0
   19.3330   15.0800    4.5980 C   0  0  0  0  0  0  0  0  0  0  0  0
   19.6140   14.4130    5.7070 N   0  0  0  0  0  0  0  0  0  0  0  0
   20.4400   15.2180    6.4440 C   0  0  0  0  0  0  0  0  0  0  0  0
   20.6690   16.4020    5.7920 C   0  0  0  0  0  0  0  0  0  0  0  0
   19.9610   16.3100    4.6250 N   0  0  0  0  0  0  0  0  0  0  0  0
   19.9020   17.3350    3.6110 C   0  0  0  0  0  0  0  0  0  0  0  0
   18.8660   13.3270    3.0690 O   0  0  0  0  0  0  0  0  0  0  0  0
   14.1847   12.7116    3.0241 H   0  0  0  0  0  0  0  0  0  0  0  0
   16.6087   12.8713    2.4935 H   0  0  0  0  0  0  0  0  0  0  0  0
   16.9467   16.2839    5.1217 H   0  0  0  0  0  0  0  0  0  0  0  0
   14.5202   16.1174    5.6373 H   0  0  0  0  0  0  0  0  0  0  0  0
   12.3843   15.0059    5.2763 H   0  0  0  0  0  0  0  0  0  0  0  0
   12.2935   13.5000    4.3242 H   0  0  0  0  0  0  0  0  0  0  0  0
   18.5570   15.3979    2.6740 H   0  0  0  0  0  0  0  0  0  0  0  0
   20.8619   14.9516    7.4243 H   0  0  0  0  0  0  0  0  0  0  0  0
   21.2885   17.2444    6.1335 H   0  0  0  0  0  0  0  0  0  0  0  0
   19.8451   18.3230    4.0912 H   0  0  0  0  0  0  0  0  0  0  0  0
   20.8046   17.2833    2.9844 H   0  0  0  0  0  0  0  0  0  0  0  0
   19.0113   17.1801    2.9844 H   0  0  0  0  0  0  0  0  0  0  0  0
   19.0423   12.7820    3.8765 H   0  0  0  0  0  0  0  0  0  0  0  0
  2  1  2  0
  3  2  1  0
  4  3  2  0
  5  4  1  0
  6  5  2  0
  6  1  1  0
  7  1  1  0
  8  4  1  0
  9  8  1  0
 10  9  2  0
 11 10  1  0
 12 11  2  0
 13  9  1  0
 13 12  1  0
 14 13  1  0
 15  8  1  0
  2 16  1  0
  3 17  1  0
  5 18  1  0
  6 19  1  0
  7 20  1  0
  7 21  1  0
  8 22  1  6
 11 23  1  0
 12 24  1  0
 14 25  1  0
 14 26  1  0
 14 27  1  0
 15 28  1  0
M  END
$$$$
=
     RDKit          3D

 50 53  0  0  0  0  0  0  0  0999 V2000
   23.5670   26.5670   13.5660 O   0  0  0  0  0  0  0  0  0  0  0  0
   24.6240   26.0160   13.2570 C   0  0  0  0  0  0  0  0  0  0  0  0
   24.8600   25.5550   11.8380 C   0  0  0  0  0  0  0  0  0  0  0  0
   25.7160   24.3080   11.7920 C   0  0  0  0  0  0  0  0  0  0  0  0
   26.9550   24.5000   12.6070 C   0  0  0  0  0  0  0  0  0  0  0  0
   26.9040   25.2530   13.7690 C   0  0  0  0  0  0  0  0  0  0  0  0
   25.6890   25.8830   14.1350 N   0  0  0  0  0  0  0  0  0  0  0  0
   27.9650   25.3990   14.5880 N   0  0  0  0  0  0  0  0  0  0  0  0
   29.1030   24.7940   14.2210 C   0  0  0  0  0  0  0  0  0  0  0  0
   29.2480   24.0390   13.1280 N   0  0  0  0  0  0  0  0  0  0  0  0
   28.1670   23.8830   12.3320 C   0  0  0  0  0  0  0  0  0  0  0  0
   28.3590   23.0020   11.1310 C   0  0  0  0  0  0  0  0  0  0  0  0
   30.3080   24.9980   15.0910 C   0  0  2  0  0  0  0  0  0  0  0  0
   30.8500   23.6630   15.5990 C   0  0  0  0  0  0  0  0  0  0  0  0
   30.7240   23.7320   17.0920 N   0  0  0  0  0  4  0  0  0  0  0  0
   30.7680   25.1740   17.4520 C   0  0  0  0  0  0  0  0  0  0  0  0
   29.9780   25.8250   16.3390 C   0  0  0  0  0  0  0  0  0  0  0  0
   25.5870   26.4920   15.4600 C   0  0  0  0  0  0  0  0  0  0  0  0
   25.6270   28.0230   15.3960 C   0  0  0  0  0  0  0  0  0  0  0  0
   27.0240   28.5530   15.5800 C   0  0  0  0  0  0  0  0  0  0  0  0
   27.8180   28.8560   14.4670 C   0  0  0  0  0  0  0  0  0  0  0  0
   29.1090   29.3620   14.6380 C   0  0  0  0  0  0  0  0  0  0  0  0
   29.6170   29.5740   15.9200 C   0  0  0  0  0  0  0  0  0  0  0  0
   28.8320   29.2830   17.0340 C   0  0  0  0  0  0  0  0  0  0  0  0
   27.5470   28.7780   16.8560 C   0  0  0  0  0  0  0  0  0  0  0  0
   26.8000   28.5150   17.9410 F   0  0  0  0  0  0  0  0  0  0  0  0
   23.8897   25.3394   11.3668 H   0  0  0  0  0  0  0  0  0  0  0  0
   25.3891   26.3553   11.3000 H   0  0  0  0  0  0  0  0  0  0  0  0
   25.1437   23.4597   12.1956 H   0  0  0  0  0  0  0  0  0  0  0  0
   26.0009   24.1073   10.7487 H   0  0  0  0  0  0  0  0  0  0  0  0
   28.5825   21.9766   11.4604 H   0  0  0  0  0  0  0  0  0  0  0  0
   27.4400   23.0008   10.5264 H   0  0  0  0  0  0  0  0  0  0  0  0
   29.1951   23.3833   10.5264 H   0  0  0  0  0  0  0  0  0  0  0  0
   31.0444   25.5199   14.4623 H   0  0  0  0  0  0  0  0  0  0  0  0
   30.2557   22.8280   15.1996 H   0  0  0  0  0  0  0  0  0  0  0  0
   31.8891   23.4925   15.2808 H   0  0  0  0  0  0  0  0  0  0  0  0
   29.8309   23.3169   17.3935 H   0  0  0  0  0  0  0  0  0  0  0  0
   31.4810   23.2088   17.5547 H   0  0  0  0  0  0  0  0  0  0  0  0
   30.2955   25.3524   18.4292 H   0  0  0  0  0  0  0  0  0  0  0  0
   31.7911   25.5671   17.5456 H   0  0  0  0  0  0  0  0  0  0  0  0
   30.2885   26.8716   16.2039 H   0  0  0  0  0  0  0  0  0  0  0  0
   28.8989   25.8446   16.5515 H   0  0  0  0  0  0  0  0  0  0  0  0
   24.6380   26.1810   15.9211 H   0  0  0  0  0  0  0  0  0  0  0  0
   26.4490   26.1554   16.0546 H   0  0  0  0  0  0  0  0  0  0  0  0
   25.2487   28.3486   14.4157 H   0  0  0  0  0  0  0  0  0  0  0  0
   25.0016   28.4162   16.2110 H   0  0  0  0  0  0  0  0  0  0  0  0
   27.4233   28.6948   13.4530 H   0  0  0  0  0  0  0  0  0  0  0  0
   29.7274   29.5942   13.7584 H   0  0  0  0  0  0  0  0  0  0  0  0
   30.6349   29.9700   16.0511 H   0  0  0  0  0  0  0  0  0  0  0  0
   29.2252   29.4512   18.0475 H   0  0  0  0  0  0  0  0  0  0  0  0
  2  1  2  0
  3  2  1  0
  4  3  1  0
  5  4  1  0
  6  5  2  0
  7  6  1  0
  7  2  1  0
  8  6  1  0
  9  8  2  0
 10  9  1  0
 11  5  1  0
 11 10  2  0
 12 11  1  0
 13  9  1  0
 14 13  1  0
 15 14  1  0
 16 15  1  0
 17 13  1  0
 17 16  1  0
 18  7  1  0
 19 18  1  0
 20 19  1  0
 21 20  2  0
 22 21  1  0
 23 22  2  0
 24 23  1  0
 25 20  1  0
 25 24  2  0
 26 25  1  0
  3 27  1  0
  3 28  1  0
  4 29  1  0
  4 30  1  0
 12 31  1  0
 12 32  1  0
 12 33  1  0
 13 34  1  6
 14 35  1  0
 14 36  1  0
 15 37  1  0
 15 38  1  0
 16 39  1  0
 16 40  1  0
 17 41  1  0
 17 42  1  0
 18 43  1  0
 18 44  1  0
 19 45  1  0
 19 46  1  0
 21 47  1  0
 22 48  1  0
 23 49  1  0
 24 50  1  0
M  CHG  1  15   1
M  END
$$$$
=
     RDKit          3D

 22 21  0  0  0  0  0  0  0  0999 V2000
   19.8260   15.5410    3.5240 N   0  0  0  0  0  4  0  0  0  0  0  0
   20.0490   17.0150    3.3930 C   0  0  0  0  0  0  0  0  0  0  0  0
   19.4990   17.4390    2.0290 C   0  0  0  0  0  0  0  0  0  0  0  0
   20.6170   17.6810    1.1660 O   0  0  0  0  0  0  0  0  0  0  0  0
   18.9240   15.0800    4.6100 C   0  0  0  0  0  0  0  0  0  0  0  0
   19.3850   15.6210    5.9610 C   0  0  0  0  0  0  0  0  0  0  0  0
   20.5050   14.7940    6.5860 C   0  0  0  0  0  0  0  0  0  0  0  0
   21.5480   15.6630    7.0330 O   0  0  0  0  0  0  0  0  0  0  0  0
   19.4318   15.2078    2.6327 H   0  0  0  0  0  0  0  0  0  0  0  0
   20.7496   15.1555    3.7674 H   0  0  0  0  0  0  0  0  0  0  0  0
   19.5185   17.5488    4.1953 H   0  0  0  0  0  0  0  0  0  0  0  0
   21.1194   17.2556    3.4733 H   0  0  0  0  0  0  0  0  0  0  0  0
   18.8706   16.6379    1.6127 H   0  0  0  0  0  0  0  0  0  0  0  0
   18.8832   18.3453    2.1261 H   0  0  0  0  0  0  0  0  0  0  0  0
   21.4239   17.8557    1.7124 H   0  0  0  0  0  0  0  0  0  0  0  0
   17.9034   15.4368    4.4075 H   0  0  0  0  0  0  0  0  0  0  0  0
   18.9445   13.9807    4.6438 H   0  0  0  0  0  0  0  0  0  0  0  0
   19.7462   16.6506    5.8211 H   0  0  0  0  0  0  0  0  0  0  0  0
   18.5237   15.5761    6.6437 H   0  0  0  0  0  0  0  0  0  0  0  0
   20.1085   14.2272    7.4413 H   0  0  0  0  0  0  0  0  0  0  0  0
   20.9062   14.0956    5.8369 H   0  0  0  0  0  0  0  0  0  0  0  0
   21.5645   15.6768    8.0228 H   0  0  0  0  0  0  0  0  0  0  0  0
  2  1  1  0
  3  2  1  0
  4  3  1  0
  5  1  1  0
  6  5  1  0
  7  6  1  0
  8  7  1  0
  1  9  1  0
  1 10  1  0
  2 11  1  0
  2 12  1  0
  3 13  1  0
  3 14  1  0
  4 15  1  0
  5 16  1  0
  5 17  1  0
  6 18  1  0
  6 19  1  0
  7 20  1  0
  7 21  1  0
  8 22  1  0
M  CHG  1   1   1
M  END
$$$$
=
     RDKit          3D

 36 38  0  0  0  0  0  0  0  0999 V2000
   17.1540   13.0990    2.5640 C   0  0  1  0  0  0  0  0  0  0  0  0
   15.6820   13.4960    2.7180 C   0  0  0  0  0  0  0  0  0  0  0  0
   15.8380   14.6130    3.6770 C   0  0  0  0  0  0  0  0  0  0  0  0
   17.1700   15.0100    3.7300 C   0  0  0  0  0  0  0  0  0  0  0  0
   17.9930   14.2170    2.9640 O   0  0  0  0  0  0  0  0  0  0  0  0
   17.5920   16.1030    4.4810 C   0  0  0  0  0  0  0  0  0  0  0  0
   16.5990   16.7760    5.2150 C   0  0  0  0  0  0  0  0  0  0  0  0
   15.2540   16.3670    5.1760 C   0  0  0  0  0  0  0  0  0  0  0  0
   14.8630   15.2830    4.3920 C   0  0  0  0  0  0  0  0  0  0  0  0
   18.9820   16.5820    4.4960 C   0  0  0  0  0  0  0  0  0  0  0  0
   19.3320   17.6340    3.6250 C   0  0  0  0  0  0  0  0  0  0  0  0
   20.6260   18.1550    3.5940 C   0  0  0  0  0  0  0  0  0  0  0  0
   21.6000   17.6370    4.4380 C   0  0  0  0  0  0  0  0  0  0  0  0
   21.2790   16.5980    5.3090 C   0  0  0  0  0  0  0  0  0  0  0  0
   19.9760   16.0620    5.3560 C   0  0  0  0  0  0  0  0  0  0  0  0
   19.7020   14.9170    6.2950 C   0  0  0  0  0  0  0  0  0  0  0  0
   20.7450   14.6170    7.1190 F   0  0  0  0  0  0  0  0  0  0  0  0
   19.4590   13.7460    5.6100 F   0  0  0  0  0  0  0  0  0  0  0  0
   18.6260   15.0810    7.1100 F   0  0  0  0  0  0  0  0  0  0  0  0
   17.5190   11.8860    3.4350 C   0  0  0  0  0  0  0  0  0  0  0  0
   18.9690   11.5810    3.2890 N   0  0  0  0  0  4  0  0  0  0  0  0
   17.3175   12.8316    1.5096 H   0  0  0  0  0  0  0  0  0  0  0  0
   15.2436   13.8291    1.7657 H   0  0  0  0  0  0  0  0  0  0  0  0
   15.0073   12.6891    3.0399 H   0  0  0  0  0  0  0  0  0  0  0  0
   16.8805   17.6413    5.8332 H   0  0  0  0  0  0  0  0  0  0  0  0
   14.5030   16.9081    5.7703 H   0  0  0  0  0  0  0  0  0  0  0  0
   13.8096   14.9699    4.3437 H   0  0  0  0  0  0  0  0  0  0  0  0
   18.5675   18.0536    2.9546 H   0  0  0  0  0  0  0  0  0  0  0  0
   20.8742   18.9740    2.9028 H   0  0  0  0  0  0  0  0  0  0  0  0
   22.6211   18.0456    4.4188 H   0  0  0  0  0  0  0  0  0  0  0  0
   22.0559   16.1888    5.9716 H   0  0  0  0  0  0  0  0  0  0  0  0
   17.2973   12.1124    4.4884 H   0  0  0  0  0  0  0  0  0  0  0  0
   16.9295   11.0153    3.1121 H   0  0  0  0  0  0  0  0  0  0  0  0
   19.3965   11.4911    4.2217 H   0  0  0  0  0  0  0  0  0  0  0  0
   19.0837   10.6975    2.7721 H   0  0  0  0  0  0  0  0  0  0  0  0
   19.4299   12.3434    2.7721 H   0  0  0  0  0  0  0  0  0  0  0  0
  2  1  1  0
  3  2  1  0
  4  3  2  0
  5  4  1  0
  5  1  1  0
  6  4  1  0
  7  6  2  0
  8  7  1  0
  9  3  1  0
  9  8  2  0
 10  6  1  0
 11 10  2  0
 12 11  1  0
 13 12  2  0
 14 13  1  0
 15 14  2  0
 15 10  1  0
 16 15  1  0
 17 16  1  0
 18 16  1  0
 19 16  1  0
 20  1  1  0
 21 20  1  0
  1 22  1  6
  2 23  1  0
  2 24  1  0
  7 25  1  0
  8 26  1  0
  9 27  1  0
 11 28  1  0
 12 29  1  0
 13 30  1  0
 14 31  1  0
 20 32  1  0
 20 33  1  0
 21 34  1  0
 21 35  1  0
 21 36  1  0
M  CHG  1  21   1
M  END
$$$$
=
     RDKit          3D

 36 38  0  0  0  0  0  0  0  0999 V2000
   18.7850   15.8300    3.3540 C   0  0  0  0  0  0  0  0  0  0  0  0
   17.6930   15.4590    4.2590 N   0  0  0  0  0  0  0  0  0  0  0  0
   16.8240   16.5460    4.7710 C   0  0  2  0  0  0  0  0  0  0  0  0
   17.4610   17.2080    5.9870 C   0  0  0  0  0  0  0  0  0  0  0  0
   15.4550   15.9220    5.1240 C   0  0  0  0  0  0  0  0  0  0  0  0
   15.4830   14.6980    4.2760 C   0  0  0  0  0  0  0  0  0  0  0  0
   16.7830   14.4760    3.8130 C   0  0  0  0  0  0  0  0  0  0  0  0
   17.0460   13.3560    3.0390 C   0  0  0  0  0  0  0  0  0  0  0  0
   16.0000   12.4830    2.7220 C   0  0  0  0  0  0  0  0  0  0  0  0
   14.7000   12.7250    3.1870 C   0  0  0  0  0  0  0  0  0  0  0  0
   14.4340   13.8400    3.9800 C   0  0  0  0  0  0  0  0  0  0  0  0
   22.0680   17.7190    5.4770 C   0  0  0  0  0  0  0  0  0  0  0  0
   21.7530   16.3800    5.7160 C   0  0  0  0  0  0  0  0  0  0  0  0
   20.6920   15.7650    5.0430 C   0  0  0  0  0  0  0  0  0  0  0  0
   19.9600   16.4600    4.0720 C   0  0  0  0  0  0  0  0  0  0  0  0
   20.3110   17.7900    3.8000 C   0  0  0  0  0  0  0  0  0  0  0  0
   21.3710   18.4020    4.4800 C   0  0  0  0  0  0  0  0  0  0  0  0
   23.2010   18.2940    6.0680 N   0  0  0  0  0  0  0  0  0  0  0  0
   19.1348   14.9243    2.8369 H   0  0  0  0  0  0  0  0  0  0  0  0
   18.3898   16.5776    2.6505 H   0  0  0  0  0  0  0  0  0  0  0  0
   16.6922   17.3301    4.0108 H   0  0  0  0  0  0  0  0  0  0  0  0
   17.0405   16.7710    6.9047 H   0  0  0  0  0  0  0  0  0  0  0  0
   18.5483   17.0427    5.9670 H   0  0  0  0  0  0  0  0  0  0  0  0
   17.2539   18.2882    5.9670 H   0  0  0  0  0  0  0  0  0  0  0  0
   15.3866   15.6729    6.1932 H   0  0  0  0  0  0  0  0  0  0  0  0
   14.5929   16.5815    4.9457 H   0  0  0  0  0  0  0  0  0  0  0  0
   18.0658   13.1562    2.6783 H   0  0  0  0  0  0  0  0  0  0  0  0
   16.1998   11.5972    2.1012 H   0  0  0  0  0  0  0  0  0  0  0  0
   13.8866   12.0323    2.9251 H   0  0  0  0  0  0  0  0  0  0  0  0
   13.4203   14.0342    4.3605 H   0  0  0  0  0  0  0  0  0  0  0  0
   22.3453   15.8026    6.4411 H   0  0  0  0  0  0  0  0  0  0  0  0
   20.4295   14.7232    5.2792 H   0  0  0  0  0  0  0  0  0  0  0  0
   19.7480   18.3582    3.0449 H   0  0  0  0  0  0  0  0  0  0  0  0
   21.6574   19.4330    4.2252 H   0  0  0  0  0  0  0  0  0  0  0  0
   23.4298   19.2822    5.8890 H   0  0  0  0  0  0  0  0  0  0  0  0
   23.8050   17.7285    6.6814 H   0  0  0  0  0  0  0  0  0  0  0  0
  2  1  1  0
  3  2  1  0
  4  3  1  0
  5  3  1  0
  6  5  1  0
  7  6  2  0
  7  2  1  0
  8  7  1  0
  9  8  2  0
 10  9  1  0
 11 10  2  0
 11  6  1  0
 13 12  2  0
 14 13  1  0
 15 14  2  0
 15  1  1  0
 16 15  1  0
 17 16  2  0
 17 12  1  0
 18 12  1  0
  1 19  1  0
  1 20  1  0
  3 21  1  6
  4 22  1  0
  4 23  1  0
  4 24  1  0
  5 25  1  0
  5 26  1  0
  8 27  1  0
  9 28  1  0
 10 29  1  0
 11 30  1  0
 13 31  1  0
 14 32  1  0
 16 33  1  0
 17 34  1  0
 18 35  1  0
 18 36  1  0
M  END
$$$$
=
     RDKit          3D

 22 22  0  0  0  0  0  0  0  0999 V2000
   20.7070   16.8660    5.1180 C   0  0  0  0  0  0  0  0  0  0  0  0
   19.6060   17.3400    5.7810 F   0  0  0  0  0  0  0  0  0  0  0  0
   20.9280   17.7780    3.9090 C   0  0  0  0  0  0  0  0  0  0  0  0
   19.7330   17.7350    2.9770 C   0  0  0  0  0  0  0  0  0  0  0  0
   19.4570   16.3200    2.5830 N   0  0  0  0  0  4  0  0  0  0  0  0
   19.1920   15.4180    3.7430 C   0  0  0  0  0  0  0  0  0  0  0  0
   20.3830   15.4370    4.6850 C   0  0  0  0  0  0  0  0  0  0  0  0
   21.8870   16.8940    6.0960 C   0  0  0  0  0  0  0  0  0  0  0  0
   21.8410   15.7740    6.9730 O   0  0  0  0  0  0  0  0  0  0  0  0
   21.0760   18.8105    4.2583 H   0  0  0  0  0  0  0  0  0  0  0  0
   21.8154   17.4284    3.3610 H   0  0  0  0  0  0  0  0  0  0  0  0
   18.8532   18.1507    3.4900 H   0  0  0  0  0  0  0  0  0  0  0  0
   19.9490   18.3299    2.0773 H   0  0  0  0  0  0  0  0  0  0  0  0
   18.6321   16.3086    1.9664 H   0  0  0  0  0  0  0  0  0  0  0  0
   20.3024   15.9668    2.1124 H   0  0  0  0  0  0  0  0  0  0  0  0
   18.2958   15.7642    4.2788 H   0  0  0  0  0  0  0  0  0  0  0  0
   19.0301   14.3926    3.3792 H   0  0  0  0  0  0  0  0  0  0  0  0
   20.1490   14.8344    5.5750 H   0  0  0  0  0  0  0  0  0  0  0  0
   21.2554   15.0203    4.1602 H   0  0  0  0  0  0  0  0  0  0  0  0
   22.8281   16.8685    5.5270 H   0  0  0  0  0  0  0  0  0  0  0  0
   21.8276   17.8146    6.6951 H   0  0  0  0  0  0  0  0  0  0  0  0
   21.8539   16.0890    7.9115 H   0  0  0  0  0  0  0  0  0  0  0  0
  2  1  1  0
  3  1  1  0
  4  3  1  0
  5  4  1  0
  6  5  1  0
  7  6  1  0
  7  1  1  0
  8  1  1  0
  9  8  1  0
  3 10  1  0
  3 11  1  0
  4 12  1  0
  4 13  1  0
  5 14  1  0
  5 15  1  0
  6 16  1  0
  6 17  1  0
  7 18  1  0
  7 19  1  0
  8 20  1  0
  8 21  1  0
  9 22  1  0
M  CHG  1   5   1
M  END
$$$$
=
     RDKit          3D

 50 52  0  0  0  0  0  0  0  0999 V2000
   18.5580   16.8450    4.5700 C   0  0  0  0  0  0  0  0  0  0  0  0
   17.6110   16.5010    5.7320 C   0  0  0  0  0  0  0  0  0  0  0  0
   16.2570   15.9380    5.2770 C   0  0  0  0  0  0  0  0  0  0  0  0
   16.3760   15.1900    3.9730 N   0  0  0  0  0  4  0  0  0  0  0  0
   17.7030   14.5140    3.8020 C   0  0  0  0  0  0  0  0  0  0  0  0
   18.8020   15.5750    3.7150 C   0  0  0  0  0  0  0  0  0  0  0  0
   22.8310   17.6990    4.9340 N   0  0  0  0  0  4  0  0  0  0  0  0
   22.1860   17.0590    6.1120 C   0  0  0  0  0  0  0  0  0  0  0  0
   20.8460   16.4610    5.6940 C   0  0  0  0  0  0  0  0  0  0  0  0
   19.9080   17.4980    5.0290 C   0  0  0  0  0  0  0  0  0  0  0  0
   20.6640   18.1940    3.8740 C   0  0  0  0  0  0  0  0  0  0  0  0
   22.0100   18.7690    4.3060 C   0  0  0  0  0  0  0  0  0  0  0  0
   15.1760   14.2960    3.6770 C   0  0  0  0  0  0  0  0  0  0  0  0
   13.9770   14.5510    4.5950 C   0  0  0  0  0  0  0  0  0  0  0  0
   12.7300   13.9420    4.0090 C   0  0  0  0  0  0  0  0  0  0  0  0
   11.4670   14.4560    4.3360 C   0  0  0  0  0  0  0  0  0  0  0  0
   10.3160   13.9100    3.7680 C   0  0  0  0  0  0  0  0  0  0  0  0
   10.4130   12.8500    2.8690 C   0  0  0  0  0  0  0  0  0  0  0  0
   11.6640   12.3310    2.5390 C   0  0  0  0  0  0  0  0  0  0  0  0
   12.8180   12.8730    3.1040 C   0  0  0  0  0  0  0  0  0  0  0  0
   18.0634   17.6149    3.9596 H   0  0  0  0  0  0  0  0  0  0  0  0
   18.1021   15.7518    6.3704 H   0  0  0  0  0  0  0  0  0  0  0  0
   17.4058   17.4390    6.2687 H   0  0  0  0  0  0  0  0  0  0  0  0
   15.8784   15.2517    6.0488 H   0  0  0  0  0  0  0  0  0  0  0  0
   15.5667   16.7813    5.1278 H   0  0  0  0  0  0  0  0  0  0  0  0
   16.3499   15.9077    3.2346 H   0  0  0  0  0  0  0  0  0  0  0  0
   17.8942   13.8563    4.6627 H   0  0  0  0  0  0  0  0  0  0  0  0
   17.6955   13.9140    2.8801 H   0  0  0  0  0  0  0  0  0  0  0  0
   19.7454   15.1167    4.0468 H   0  0  0  0  0  0  0  0  0  0  0  0
   18.8228   15.9099    2.6674 H   0  0  0  0  0  0  0  0  0  0  0  0
   23.7246   18.1116    5.2376 H   0  0  0  0  0  0  0  0  0  0  0  0
   22.9568   16.9628    4.2247 H   0  0  0  0  0  0  0  0  0  0  0  0
   22.8382   16.2626    6.4998 H   0  0  0  0  0  0  0  0  0  0  0  0
   22.0230   17.8130    6.8962 H   0  0  0  0  0  0  0  0  0  0  0  0
   21.0324   15.6462    4.9789 H   0  0  0  0  0  0  0  0  0  0  0  0
   20.3465   16.0983    6.6045 H   0  0  0  0  0  0  0  0  0  0  0  0
   19.6257   18.2651    5.7652 H   0  0  0  0  0  0  0  0  0  0  0  0
   20.8369   17.4587    3.0744 H   0  0  0  0  0  0  0  0  0  0  0  0
   20.0415   19.0335    3.5308 H   0  0  0  0  0  0  0  0  0  0  0  0
   22.5375   19.1667    3.4265 H   0  0  0  0  0  0  0  0  0  0  0  0
   21.8455   19.5777    5.0333 H   0  0  0  0  0  0  0  0  0  0  0  0
   14.8609   14.4705    2.6376 H   0  0  0  0  0  0  0  0  0  0  0  0
   15.4979   13.2584    3.8494 H   0  0  0  0  0  0  0  0  0  0  0  0
   14.1720   14.1013    5.5798 H   0  0  0  0  0  0  0  0  0  0  0  0
   13.8303   15.6363    4.6983 H   0  0  0  0  0  0  0  0  0  0  0  0
   11.3835   15.2938    5.0439 H   0  0  0  0  0  0  0  0  0  0  0  0
    9.3286   14.3176    4.0306 H   0  0  0  0  0  0  0  0  0  0  0  0
    9.5038   12.4233    2.4203 H   0  0  0  0  0  0  0  0  0  0  0  0
   11.7410   11.4922    1.8315 H   0  0  0  0  0  0  0  0  0  0  0  0
   13.8026   12.4604    2.8389 H   0  0  0  0  0  0  0  0  0  0  0  0
  2  1  1  0
  3  2  1  0
  4  3  1  0
  5  4  1  0
  6  5  1  0
  6  1  1  0
  8  7  1  0
  9  8  1  0
 10  1  1  0
 10  9  1  0
 11 10  1  0
 12 11  1  0
 12  7  1  0
 13  4  1  0
 14 13  1  0
 15 14  1  0
 16 15  2  0
 17 16  1  0
 18 17  2  0
 19 18  1  0
 20 19  2  0
 20 15  1  0
  1 21  1  0
  2 22  1  0
  2 23  1  0
  3 24  1  0
  3 25  1  0
  4 26  1  0
  5 27  1  0
  5 28  1  0
  6 29  1  0
  6 30  1  0
  7 31  1  0
  7 32  1  0
  8 33  1  0
  8 34  1  0
  9 35  1  0
  9 36  1  0
 10 37  1  0
 11 38  1  0
 11 39  1  0
 12 40  1  0
 12 41  1  0
 13 42  1  0
 13 43  1  0
 14 44  1  0
 14 45  1  0
 16 46  1  0
 17 47  1  0
 18 48  1  0
 19 49  1  0
 20 50  1  0
M  CHG  2   4   1   7   1
M  END
$$$$
=
     RDKit          3D

 60 59  0  0  0  0  0  0  0  0999 V2000
   15.0770   14.0850    3.5290 C   0  0  0  0  0  0  0  0  0  0  0  0
   14.8590   14.7070    4.9100 C   0  0  0  0  0  0  0  0  0  0  0  0
   15.5710   16.0570    5.0270 C   0  0  0  0  0  0  0  0  0  0  0  0
   16.5840   16.0530    6.1750 C   0  0  0  0  0  0  0  0  0  0  0  0
   17.9570   16.5350    5.7010 C   0  0  0  0  0  0  0  0  0  0  0  0
   18.8380   15.4130    5.1420 C   0  0  0  0  0  0  0  0  0  0  0  0
   19.6270   14.6650    6.2200 C   0  0  0  0  0  0  0  0  0  0  0  0
   20.8280   15.4550    6.7530 C   0  0  0  0  0  0  0  0  0  0  0  0
   21.7720   15.9490    5.6530 C   0  0  0  0  0  0  0  0  0  0  0  0
   22.2550   17.3730    5.9400 C   0  0  0  0  0  0  0  0  0  0  0  0
   20.9450   18.2480    3.9310 C   0  0  0  0  0  0  0  0  0  0  0  0
   21.3200   18.4530    5.3910 C   0  0  0  0  0  0  0  0  0  0  0  0
   14.7740   12.5830    3.4780 C   0  0  0  0  0  0  0  0  0  0  0  0
   13.2920   12.2580    3.6790 C   0  0  0  0  0  0  0  0  0  0  0  0
   12.4300   12.5690    2.4510 C   0  0  0  0  0  0  0  0  0  0  0  0
   11.0930   11.8350    2.4560 C   0  0  0  0  0  0  0  0  0  0  0  0
    9.9850   12.8540    2.4430 N   0  0  0  0  0  4  0  0  0  0  0  0
    9.3580   13.1950    3.7730 C   0  0  0  0  0  0  0  0  0  0  0  0
   10.2020   14.1360    4.6340 C   0  0  0  0  0  0  0  0  0  0  0  0
   10.0940   13.7760    6.0480 C   0  0  0  0  0  0  0  0  0  0  0  0
   10.0780   13.5780    7.1880 N   0  0  0  0  0  0  0  0  0  0  0  0
   14.4209   14.5968    2.8095 H   0  0  0  0  0  0  0  0  0  0  0  0
   16.1424   14.2078    3.2843 H   0  0  0  0  0  0  0  0  0  0  0  0
   13.7809   14.8547    5.0710 H   0  0  0  0  0  0  0  0  0  0  0  0
   15.2745   14.0269    5.6682 H   0  0  0  0  0  0  0  0  0  0  0  0
   16.0980   16.2672    4.0846 H   0  0  0  0  0  0  0  0  0  0  0  0
   14.8168   16.8311    5.2317 H   0  0  0  0  0  0  0  0  0  0  0  0
   16.2251   16.7197    6.9729 H   0  0  0  0  0  0  0  0  0  0  0  0
   16.6852   15.0230    6.5476 H   0  0  0  0  0  0  0  0  0  0  0  0
   17.8089   17.2874    4.9123 H   0  0  0  0  0  0  0  0  0  0  0  0
   18.4761   16.9479    6.5785 H   0  0  0  0  0  0  0  0  0  0  0  0
   18.1935   14.6918    4.6181 H   0  0  0  0  0  0  0  0  0  0  0  0
   19.5714   15.8809    4.4688 H   0  0  0  0  0  0  0  0  0  0  0  0
   18.9509   14.4490    7.0604 H   0  0  0  0  0  0  0  0  0  0  0  0
   20.0207   13.7480    5.7572 H   0  0  0  0  0  0  0  0  0  0  0  0
   20.4523   16.3278    7.3071 H   0  0  0  0  0  0  0  0  0  0  0  0
   21.4063   14.7718    7.3924 H   0  0  0  0  0  0  0  0  0  0  0  0
   22.6423   15.2785    5.5986 H   0  0  0  0  0  0  0  0  0  0  0  0
   21.2254   15.9511    4.6984 H   0  0  0  0  0  0  0  0  0  0  0  0
   22.3346   17.5014    7.0296 H   0  0  0  0  0  0  0  0  0  0  0  0
   23.2248   17.4953    5.4355 H   0  0  0  0  0  0  0  0  0  0  0  0
   19.9813   17.7212    3.8705 H   0  0  0  0  0  0  0  0  0  0  0  0
   20.8605   19.2254    3.4334 H   0  0  0  0  0  0  0  0  0  0  0  0
   21.7221   17.6492    3.4334 H   0  0  0  0  0  0  0  0  0  0  0  0
   21.8198   19.4281    5.4882 H   0  0  0  0  0  0  0  0  0  0  0  0
   20.3887   18.4007    5.9740 H   0  0  0  0  0  0  0  0  0  0  0  0
   15.0863   12.1968    2.4965 H   0  0  0  0  0  0  0  0  0  0  0  0
   15.3264   12.1106    4.3037 H   0  0  0  0  0  0  0  0  0  0  0  0
   13.1979   11.1864    3.9090 H   0  0  0  0  0  0  0  0  0  0  0  0
   12.9284   12.8925    4.5007 H   0  0  0  0  0  0  0  0  0  0  0  0
   12.2349   13.6513    2.4254 H   0  0  0  0  0  0  0  0  0  0  0  0
   12.9869   12.2293    1.5653 H   0  0  0  0  0  0  0  0  0  0  0  0
   11.0183   11.1951    1.5644 H   0  0  0  0  0  0  0  0  0  0  0  0
   11.0136   11.2053    3.3544 H   0  0  0  0  0  0  0  0  0  0  0  0
   10.3669   13.7244    2.0463 H   0  0  0  0  0  0  0  0  0  0  0  0
    9.2293   12.4232    1.8914 H   0  0  0  0  0  0  0  0  0  0  0  0
    8.3867   13.6758    3.5847 H   0  0  0  0  0  0  0  0  0  0  0  0
    9.2619   12.2521    4.3313 H   0  0  0  0  0  0  0  0  0  0  0  0
   11.2545   14.0649    4.3222 H   0  0  0  0  0  0  0  0  0  0  0  0
    9.8343   15.1641    4.5007 H   0  0  0  0  0  0  0  0  0  0  0  0
  2  1  1  0
  3  2  1  0
  4  3  1  0
  5  4  1  0
  6  5  1  0
  7  6  1  0
  8  7  1  0
  9  8  1  0
 10  9  1  0
 12 11  1  0
 12 10  1  0
 13  1  1  0
 14 13  1  0
 15 14  1  0
 16 15  1  0
 17 16  1  0
 18 17  1  0
 19 18  1  0
 20 19  1  0
 21 20  3  0
  1 22  1  0
  1 23  1  0
  2 24  1  0
  2 25  1  0
  3 26  1  0
  3 27  1  0
  4 28  1  0
  4 29  1  0
  5 30  1  0
  5 31  1  0
  6 32  1  0
  6 33  1  0
  7 34  1  0
  7 35  1  0
  8 36  1  0
  8 37  1  0
  9 38  1  0
  9 39  1  0
 10 40  1  0
 10 41  1  0
 11 42  1  0
 11 43  1  0
 11 44  1  0
 12 45  1  0
 12 46  1  0
 13 47  1  0
 13 48  1  0
 14 49  1  0
 14 50  1  0
 15 51  1  0
 15 52  1  0
 16 53  1  0
 16 54  1  0
 17 55  1  0
 17 56  1  0
 18 57  1  0
 18 58  1  0
 19 59  1  0
 19 60  1  0
M  CHG  1  17   1
M  END
$$$$
=
     RDKit          3D

 38 39  0  0  0  0  0  0  0  0999 V2000
   18.3510   14.8910    4.7240 O   0  0  0  0  0  0  0  0  0  0  0  0
   17.5060   15.3230    3.6570 C   0  0  0  0  0  0  0  0  0  0  0  0
   17.2850   12.7040    2.5940 F   0  0  0  0  0  0  0  0  0  0  0  0
   16.1660   13.2690    3.0750 C   0  0  0  0  0  0  0  0  0  0  0  0
   14.9770   12.5450    3.0330 C   0  0  0  0  0  0  0  0  0  0  0  0
   13.8070   13.1070    3.5460 C   0  0  0  0  0  0  0  0  0  0  0  0
   13.8430   14.3880    4.0960 C   0  0  0  0  0  0  0  0  0  0  0  0
   15.0430   15.0960    4.1270 C   0  0  0  0  0  0  0  0  0  0  0  0
   16.2220   14.5530    3.6170 C   0  0  0  0  0  0  0  0  0  0  0  0
   15.0490   16.3300    4.6520 F   0  0  0  0  0  0  0  0  0  0  0  0
   18.2950   15.6830    5.9040 C   0  0  0  0  0  0  0  0  0  0  0  0
   18.2840   17.1670    5.5390 C   0  0  0  0  0  0  0  0  0  0  0  0
   19.6910   17.7550    5.4340 C   0  0  2  0  0  0  0  0  0  0  0  0
   20.0570   18.2300    4.0200 C   0  0  0  0  0  0  0  0  0  0  0  0
   21.5610   18.2220    3.7360 C   0  0  0  0  0  0  0  0  0  0  0  0
   22.3800   18.3310    5.0150 C   0  0  0  0  0  0  0  0  0  0  0  0
   22.0870   17.1910    5.9860 C   0  0  0  0  0  0  0  0  0  0  0  0
   20.6800   16.6990    5.8380 N   0  0  0  0  0  4  0  0  0  0  0  0
   17.2770   16.3901    3.7940 H   0  0  0  0  0  0  0  0  0  0  0  0
   18.0373   15.1509    2.7093 H   0  0  0  0  0  0  0  0  0  0  0  0
   14.9601   11.5350    2.5976 H   0  0  0  0  0  0  0  0  0  0  0  0
   12.8629   12.5433    3.5167 H   0  0  0  0  0  0  0  0  0  0  0  0
   12.9264   14.8386    4.5044 H   0  0  0  0  0  0  0  0  0  0  0  0
   17.3797   15.4389    6.4632 H   0  0  0  0  0  0  0  0  0  0  0  0
   19.1791   15.4705    6.5231 H   0  0  0  0  0  0  0  0  0  0  0  0
   17.7780   17.2880    4.5698 H   0  0  0  0  0  0  0  0  0  0  0  0
   17.7565   17.7043    6.3409 H   0  0  0  0  0  0  0  0  0  0  0  0
   19.7179   18.6352    6.0932 H   0  0  0  0  0  0  0  0  0  0  0  0
   19.5632   17.5683    3.2931 H   0  0  0  0  0  0  0  0  0  0  0  0
   19.7204   19.2738    3.9353 H   0  0  0  0  0  0  0  0  0  0  0  0
   21.8217   17.2832    3.2255 H   0  0  0  0  0  0  0  0  0  0  0  0
   21.7940   19.0932    3.1062 H   0  0  0  0  0  0  0  0  0  0  0  0
   23.4485   18.3086    4.7544 H   0  0  0  0  0  0  0  0  0  0  0  0
   22.1084   19.2748    5.5105 H   0  0  0  0  0  0  0  0  0  0  0  0
   22.7801   16.3610    5.7840 H   0  0  0  0  0  0  0  0  0  0  0  0
   22.2179   17.5660    7.0118 H   0  0  0  0  0  0  0  0  0  0  0  0
   20.3799   16.3057    6.7414 H   0  0  0  0  0  0  0  0  0  0  0  0
   20.6912   16.0021    5.0796 H   0  0  0  0  0  0  0  0  0  0  0  0
  2  1  1  0
  4  3  1  0
  5  4  2  0
  6  5  1  0
  7  6  2  0
  8  7  1  0
  9  8  2  0
  9  4  1  0
  9  2  1  0
 10  8  1  0
 11  1  1  0
 12 11  1  0
 13 12  1  0
 14 13  1  0
 15 14  1  0
 16 15  1  0
 17 16  1  0
 18 13  1  0
 18 17  1  0
  2 19  1  0
  2 20  1  0
  5 21  1  0
  6 22  1  0
  7 23  1  0
 11 24  1  0
 11 25  1  0
 12 26  1  0
 12 27  1  0
 13 28  1  1
 14 29  1  0
 14 30  1  0
 15 31  1  0
 15 32  1  0
 16 33  1  0
 16 34  1  0
 17 35  1  0
 17 36  1  0
 18 37  1  0
 18 38  1  0
M  CHG  1  18   1
M  END
$$$$
=
     RDKit          3D

 35 36  0  0  0  0  0  0  0  0999 V2000
   17.6930   15.4780    4.3550 N   0  0  0  0  0  0  0  0  0  0  0  0
   18.1180   16.3350    3.2240 C   0  0  0  0  0  0  0  0  0  0  0  0
   19.6440   16.5990    3.2980 C   0  0  1  0  0  0  0  0  0  0  0  0
   20.0930   17.6260    2.2690 C   0  0  0  0  0  0  0  0  0  0  0  0
   20.0240   17.1190    4.6760 N   0  0  0  0  0  4  0  0  0  0  0  0
   19.5390   16.2570    5.8330 C   0  0  1  0  0  0  0  0  0  0  0  0
   18.0150   16.0050    5.6990 C   0  0  0  0  0  0  0  0  0  0  0  0
   20.3600   14.9740    5.8940 C   0  0  0  0  0  0  0  0  0  0  0  0
   16.0860   13.7220    3.4930 C   0  0  0  0  0  0  0  0  0  0  0  0
   14.7620   13.2750    3.3470 C   0  0  0  0  0  0  0  0  0  0  0  0
   13.7250   14.0210    3.8980 C   0  0  0  0  0  0  0  0  0  0  0  0
   14.0160   15.1960    4.5880 C   0  0  0  0  0  0  0  0  0  0  0  0
   15.3400   15.6310    4.7190 C   0  0  0  0  0  0  0  0  0  0  0  0
   16.4190   14.9150    4.1660 C   0  0  0  0  0  0  0  0  0  0  0  0
   18.2090   12.8620    3.5100 O   0  0  0  0  0  1  0  0  0  0  0  0
   17.1090   12.8630    2.9420 N   0  0  0  0  0  4  0  0  0  0  0  0
   16.7990   12.1510    1.9760 O   0  0  0  0  0  0  0  0  0  0  0  0
   17.8820   15.8294    2.2760 H   0  0  0  0  0  0  0  0  0  0  0  0
   17.5839   17.2950    3.2799 H   0  0  0  0  0  0  0  0  0  0  0  0
   20.1417   15.6399    3.0919 H   0  0  0  0  0  0  0  0  0  0  0  0
   20.4822   18.5161    2.7850 H   0  0  0  0  0  0  0  0  0  0  0  0
   20.8837   17.1924    1.6390 H   0  0  0  0  0  0  0  0  0  0  0  0
   19.2378   17.9120    1.6390 H   0  0  0  0  0  0  0  0  0  0  0  0
   21.0512   17.1760    4.7261 H   0  0  0  0  0  0  0  0  0  0  0  0
   19.5637   18.0345    4.7803 H   0  0  0  0  0  0  0  0  0  0  0  0
   19.6883   16.7770    6.7908 H   0  0  0  0  0  0  0  0  0  0  0  0
   17.4765   16.9514    5.8552 H   0  0  0  0  0  0  0  0  0  0  0  0
   17.7091   15.2655    6.4537 H   0  0  0  0  0  0  0  0  0  0  0  0
   20.5351   14.7004    6.9449 H   0  0  0  0  0  0  0  0  0  0  0  0
   19.8121   14.1638    5.3905 H   0  0  0  0  0  0  0  0  0  0  0  0
   21.3252   15.1320    5.3905 H   0  0  0  0  0  0  0  0  0  0  0  0
   14.5474   12.3439    2.8021 H   0  0  0  0  0  0  0  0  0  0  0  0
   12.6830   13.6857    3.7897 H   0  0  0  0  0  0  0  0  0  0  0  0
   13.2004   15.7853    5.0324 H   0  0  0  0  0  0  0  0  0  0  0  0
   15.5438   16.5605    5.2708 H   0  0  0  0  0  0  0  0  0  0  0  0
  2  1  1  0
  3  2  1  0
  4  3  1  0
  5  3  1  0
  6  5  1  0
  7  1  1  0
  7  6  1  0
  8  6  1  0
 10  9  2  0
 11 10  1  0
 12 11  2  0
 13 12  1  0
 14 13  2  0
 14  9  1  0
 14  1  1  0
 16  9  1  0
 16 15  1  0
 17 16  2  0
  2 18  1  0
  2 19  1  0
  3 20  1  6
  4 21  1  0
  4 22  1  0
  4 23  1  0
  5 24  1  0
  5 25  1  0
  6 26  1  1
  7 27  1  0
  7 28  1  0
  8 29  1  0
  8 30  1  0
  8 31  1  0
 10 32  1  0
 11 33  1  0
 12 34  1  0
 13 35  1  0
M  CHG  3   5   1  15  -1  16   1
M  END
$$$$
=
     RDKit          3D

 32 33  0  0  0  0  0  0  0  0999 V2000
   18.3710   16.1650    4.9510 C   0  0  1  0  0  0  0  0  0  0  0  0
   16.9280   15.8590    4.6460 C   0  0  0  0  0  0  0  0  0  0  0  0
   15.7870   16.5790    4.9590 C   0  0  0  0  0  0  0  0  0  0  0  0
   14.5500   16.0410    4.5950 C   0  0  0  0  0  0  0  0  0  0  0  0
   14.4680   14.8000    3.9410 C   0  0  0  0  0  0  0  0  0  0  0  0
   15.6220   14.0730    3.6420 C   0  0  0  0  0  0  0  0  0  0  0  0
   16.8380   14.6200    4.0070 C   0  0  0  0  0  0  0  0  0  0  0  0
   18.1230   14.1040    3.8060 N   0  0  0  0  0  0  0  0  0  0  0  0
   19.0900   14.9940    4.2510 C   0  0  0  0  0  0  0  0  0  0  0  0
   20.2960   14.9550    4.0390 O   0  0  0  0  0  0  0  0  0  0  0  0
   18.3890   12.8700    3.1070 C   0  0  0  0  0  0  0  0  0  0  0  0
   18.8690   17.5560    4.4880 C   0  0  1  0  0  0  0  0  0  0  0  0
   19.9250   18.0980    5.4620 C   0  0  0  0  0  0  0  0  0  0  0  0
   19.3380   17.6220    3.0210 C   0  0  0  0  0  0  0  0  0  0  0  0
   20.7920   17.8830    2.8820 N   0  0  0  0  0  4  0  0  0  0  0  0
   18.5634   16.2375    6.0316 H   0  0  0  0  0  0  0  0  0  0  0  0
   15.8528   17.5461    5.4790 H   0  0  0  0  0  0  0  0  0  0  0  0
   13.6282   16.5962    4.8234 H   0  0  0  0  0  0  0  0  0  0  0  0
   13.4835   14.3967    3.6614 H   0  0  0  0  0  0  0  0  0  0  0  0
   15.5655   13.0991    3.1338 H   0  0  0  0  0  0  0  0  0  0  0  0
   18.5625   12.0653    3.8367 H   0  0  0  0  0  0  0  0  0  0  0  0
   17.5257   12.6127    2.4757 H   0  0  0  0  0  0  0  0  0  0  0  0
   19.2816   12.9912    2.4757 H   0  0  0  0  0  0  0  0  0  0  0  0
   17.9891   18.2157    4.5120 H   0  0  0  0  0  0  0  0  0  0  0  0
   19.5919   17.9270    6.4963 H   0  0  0  0  0  0  0  0  0  0  0  0
   20.8799   17.5786    5.2937 H   0  0  0  0  0  0  0  0  0  0  0  0
   20.0597   19.1767    5.2937 H   0  0  0  0  0  0  0  0  0  0  0  0
   19.1077   16.6614    2.5370 H   0  0  0  0  0  0  0  0  0  0  0  0
   18.8090   18.4618    2.5468 H   0  0  0  0  0  0  0  0  0  0  0  0
   21.2180   17.9595    3.8167 H   0  0  0  0  0  0  0  0  0  0  0  0
   21.2323   17.1076    2.3664 H   0  0  0  0  0  0  0  0  0  0  0  0
   20.9351   18.7631    2.3664 H   0  0  0  0  0  0  0  0  0  0  0  0
  2  1  1  0
  3  2  2  0
  4  3  1  0
  5  4  2  0
  6  5  1  0
  7  6  2  0
  7  2  1  0
  8  7  1  0
  9  8  1  0
  9  1  1  0
 10  9  2  0
 11  8  1  0
 12  1  1  0
 13 12  1  0
 14 12  1  0
 15 14  1  0
  1 16  1  1
  3 17  1  0
  4 18  1  0
  5 19  1  0
  6 20  1  0
 11 21  1  0
 11 22  1  0
 11 23  1  0
 12 24  1  6
 13 25  1  0
 13 26  1  0
 13 27  1  0
 14 28  1  0
 14 29  1  0
 15 30  1  0
 15 31  1  0
 15 32  1  0
M  CHG  1  15   1
M  END
$$$$
=
     RDKit          3D

 32 33  0  0  0  0  0  0  0  0999 V2000
   19.0650   15.9580    4.8870 C   0  0  0  0  0  0  0  0  0  0  0  0
   18.5340   16.9640    5.5820 N   0  0  0  0  0  0  0  0  0  0  0  0
   16.8850   16.7550    5.5350 S   0  0  0  0  0  0  0  0  0  0  0  0
   16.9690   15.3230    4.5530 C   0  0  0  0  0  0  0  0  0  0  0  0
   18.2250   15.0210    4.2960 N   0  0  0  0  0  0  0  0  0  0  0  0
   15.9110   14.5670    4.1120 N   0  0  0  0  0  0  0  0  0  0  0  0
   16.2570   13.5720    3.0670 C   0  0  0  0  0  0  0  0  0  0  0  0
   15.0370   12.7230    2.6580 C   0  0  0  0  0  0  0  0  0  0  0  0
   14.0570   12.6820    3.7950 N   0  0  0  0  0  4  0  0  0  0  0  0
   13.4800   14.0380    4.1070 C   0  0  0  0  0  0  0  0  0  0  0  0
   14.5610   15.1460    4.0320 C   0  0  0  0  0  0  0  0  0  0  0  0
   20.5390   15.8370    4.7330 C   0  0  0  0  0  0  0  0  0  0  0  0
   21.1980   15.2920    5.9960 C   0  0  0  0  0  0  0  0  0  0  0  0
   22.3710   17.3600    5.9280 C   0  0  0  0  0  0  0  0  0  0  0  0
   21.8360   16.3270    6.7460 O   0  0  0  0  0  0  0  0  0  0  0  0
   16.6343   14.1032    2.1807 H   0  0  0  0  0  0  0  0  0  0  0  0
   17.0213   12.8962    3.4783 H   0  0  0  0  0  0  0  0  0  0  0  0
   14.5571   13.1707    1.7753 H   0  0  0  0  0  0  0  0  0  0  0  0
   15.3638   11.7009    2.4163 H   0  0  0  0  0  0  0  0  0  0  0  0
   13.2873   12.0448    3.5451 H   0  0  0  0  0  0  0  0  0  0  0  0
   14.5613   12.3559    4.6318 H   0  0  0  0  0  0  0  0  0  0  0  0
   12.6854   14.2641    3.3807 H   0  0  0  0  0  0  0  0  0  0  0  0
   13.0794   14.0153    5.1312 H   0  0  0  0  0  0  0  0  0  0  0  0
   14.4569   15.6872    3.0800 H   0  0  0  0  0  0  0  0  0  0  0  0
   14.4214   15.8319    4.8805 H   0  0  0  0  0  0  0  0  0  0  0  0
   20.7548   15.1559    3.8966 H   0  0  0  0  0  0  0  0  0  0  0  0
   20.9461   16.8407    4.5410 H   0  0  0  0  0  0  0  0  0  0  0  0
   20.4288   14.8187    6.6240 H   0  0  0  0  0  0  0  0  0  0  0  0
   21.9647   14.5625    5.6961 H   0  0  0  0  0  0  0  0  0  0  0  0
   22.7833   18.1560    6.5655 H   0  0  0  0  0  0  0  0  0  0  0  0
   23.1693   16.9484    5.2929 H   0  0  0  0  0  0  0  0  0  0  0  0
   21.5742   17.7745    5.2929 H   0  0  0  0  0  0  0  0  0  0  0  0
  2  1  2  0
  3  2  1  0
  4  3  1  0
  5  4  2  0
  5  1  1  0
  6  4  1  0
  7  6  1  0
  8  7  1  0
  9  8  1  0
 10  9  1  0
 11 10  1  0
 11  6  1  0
 12  1  1  0
 13 12  1  0
 15 13  1  0
 15 14  1  0
  7 16  1  0
  7 17  1  0
  8 18  1  0
  8 19  1  0
  9 20  1  0
  9 21  1  0
 10 22  1  0
 10 23  1  0
 11 24  1  0
 11 25  1  0
 12 26  1  0
 12 27  1  0
 13 28  1  0
 13 29  1  0
 14 30  1  0
 14 31  1  0
 14 32  1  0
M  CHG  1   9   1
M  END
$$$$
=
     RDKit          3D

 37 38  0  0  0  0  0  0  0  0999 V2000
   18.5870   15.1190    5.9550 O   0  0  0  0  0  0  0  0  0  0  0  0
   18.7700   15.2660    4.7480 C   0  0  0  0  0  0  0  0  0  0  0  0
   17.8550   15.1220    3.7250 N   0  0  0  0  0  0  0  0  0  0  0  0
   16.4800   14.7740    3.8320 C   0  0  0  0  0  0  0  0  0  0  0  0
   15.5470   15.6330    4.4240 C   0  0  0  0  0  0  0  0  0  0  0  0
   14.2060   15.2720    4.5220 C   0  0  0  0  0  0  0  0  0  0  0  0
   13.7730   14.0610    3.9970 C   0  0  0  0  0  0  0  0  0  0  0  0
   14.6620   13.2030    3.3400 C   0  0  0  0  0  0  0  0  0  0  0  0
   16.0420   13.5200    3.3210 C   0  0  0  0  0  0  0  0  0  0  0  0
   17.0330   12.5340    2.7450 C   0  0  0  0  0  0  0  0  0  0  0  0
   14.1700   11.9620    2.9040 N   0  0  0  0  0  0  0  0  0  0  0  0
   20.1760   15.6530    4.2740 C   0  0  0  0  0  0  0  0  0  0  0  0
   20.6910   16.8570    5.0470 N   0  0  0  0  0  4  0  0  0  0  0  0
   20.8070   18.1340    4.2350 C   0  0  0  0  0  0  0  0  0  0  0  0
   22.2320   18.6050    4.4710 C   0  0  0  0  0  0  0  0  0  0  0  0
   22.5880   18.0330    5.8300 C   0  0  0  0  0  0  0  0  0  0  0  0
   21.9860   16.6450    5.7750 C   0  0  0  0  0  0  0  0  0  0  0  0
   18.2095   15.2858    2.7719 H   0  0  0  0  0  0  0  0  0  0  0  0
   15.8775   16.6058    4.8169 H   0  0  0  0  0  0  0  0  0  0  0  0
   13.4895   15.9455    5.0150 H   0  0  0  0  0  0  0  0  0  0  0  0
   12.7164   13.7725    4.0992 H   0  0  0  0  0  0  0  0  0  0  0  0
   17.5534   12.0162    3.5642 H   0  0  0  0  0  0  0  0  0  0  0  0
   16.4998   11.7975    2.1259 H   0  0  0  0  0  0  0  0  0  0  0  0
   17.7668   13.0709    2.1259 H   0  0  0  0  0  0  0  0  0  0  0  0
   14.7938   11.3032    2.4165 H   0  0  0  0  0  0  0  0  0  0  0  0
   13.1853   11.7107    3.0717 H   0  0  0  0  0  0  0  0  0  0  0  0
   20.8570   14.8038    4.4325 H   0  0  0  0  0  0  0  0  0  0  0  0
   20.1306   15.9114    3.2057 H   0  0  0  0  0  0  0  0  0  0  0  0
   19.9411   16.9714    5.7438 H   0  0  0  0  0  0  0  0  0  0  0  0
   20.6355   17.9330    3.1672 H   0  0  0  0  0  0  0  0  0  0  0  0
   20.0623   18.8876    4.5309 H   0  0  0  0  0  0  0  0  0  0  0  0
   22.9062   18.2153    3.6941 H   0  0  0  0  0  0  0  0  0  0  0  0
   22.3270   19.7003    4.4349 H   0  0  0  0  0  0  0  0  0  0  0  0
   23.6784   17.9873    5.9678 H   0  0  0  0  0  0  0  0  0  0  0  0
   22.2146   18.6378    6.6695 H   0  0  0  0  0  0  0  0  0  0  0  0
   21.8090   16.2522    6.7871 H   0  0  0  0  0  0  0  0  0  0  0  0
   22.6411   15.9117    5.2820 H   0  0  0  0  0  0  0  0  0  0  0  0
  2  1  2  0
  3  2  1  0
  4  3  1  0
  5  4  2  0
  6  5  1  0
  7  6  2  0
  8  7  1  0
  9  8  2  0
  9  4  1  0
 10  9  1  0
 11  8  1  0
 12  2  1  0
 13 12  1  0
 14 13  1  0
 15 14  1  0
 16 15  1  0
 17 13  1  0
 17 16  1  0
  3 18  1  0
  5 19  1  0
  6 20  1  0
  7 21  1  0
 10 22  1  0
 10 23  1  0
 10 24  1  0
 11 25  1  0
 11 26  1  0
 12 27  1  0
 12 28  1  0
 13 29  1  0
 14 30  1  0
 14 31  1  0
 15 32  1  0
 15 33  1  0
 16 34  1  0
 16 35  1  0
 17 36  1  0
 17 37  1  0
M  CHG  1  13   1
M  END
$$$$
=
     RDKit          3D

 27 27  0  0  0  0  0  0  0  0999 V2000
   20.9520   17.4720    4.3000 C   0  0  0  0  0  0  0  0  0  0  0  0
   20.1360   17.4220    3.1850 C   0  0  0  0  0  0  0  0  0  0  0  0
   19.2020   16.3950    3.0800 C   0  0  0  0  0  0  0  0  0  0  0  0
   19.0860   15.4310    4.0950 C   0  0  0  0  0  0  0  0  0  0  0  0
   19.9470   15.5640    5.1950 C   0  0  0  0  0  0  0  0  0  0  0  0
   20.8650   16.5550    5.2860 N   0  0  0  0  0  0  0  0  0  0  0  0
   19.9310   14.6210    6.3650 C   0  0  0  0  0  0  0  0  0  0  0  0
   23.1260   18.1970    5.8520 C   0  0  0  0  0  0  0  0  0  0  0  0
   22.1610   18.7710    4.4290 S   0  0  0  0  0  0  0  0  0  0  0  0
   18.1020   14.2940    3.9740 C   0  0  1  0  0  0  0  0  0  0  0  0
   16.7100   14.7300    3.5200 C   0  0  0  0  0  0  0  0  0  0  0  0
   18.6040   13.2640    3.0190 N   0  0  0  0  0  4  0  0  0  0  0  0
   20.2233   18.1812    2.3938 H   0  0  0  0  0  0  0  0  0  0  0  0
   18.5501   16.3380    2.1958 H   0  0  0  0  0  0  0  0  0  0  0  0
   19.9408   15.1982    7.3013 H   0  0  0  0  0  0  0  0  0  0  0  0
   19.0222   14.0025    6.3250 H   0  0  0  0  0  0  0  0  0  0  0  0
   20.8183   13.9720    6.3250 H   0  0  0  0  0  0  0  0  0  0  0  0
   22.6215   18.4971    6.7823 H   0  0  0  0  0  0  0  0  0  0  0  0
   23.2119   17.1009    5.8186 H   0  0  0  0  0  0  0  0  0  0  0  0
   24.1302   18.6447    5.8186 H   0  0  0  0  0  0  0  0  0  0  0  0
   18.0100   13.8811    4.9894 H   0  0  0  0  0  0  0  0  0  0  0  0
   16.0818   14.9268    4.4013 H   0  0  0  0  0  0  0  0  0  0  0  0
   16.7914   15.6457    2.9159 H   0  0  0  0  0  0  0  0  0  0  0  0
   16.2545   13.9315    2.9159 H   0  0  0  0  0  0  0  0  0  0  0  0
   18.9919   12.4680    3.5452 H   0  0  0  0  0  0  0  0  0  0  0  0
   17.8274   12.9379    2.4262 H   0  0  0  0  0  0  0  0  0  0  0  0
   19.3393   13.6748    2.4262 H   0  0  0  0  0  0  0  0  0  0  0  0
  2  1  2  0
  3  2  1  0
  4  3  2  0
  5  4  1  0
  6  5  2  0
  6  1  1  0
  7  5  1  0
  9  1  1  0
  9  8  1  0
 10  4  1  0
 11 10  1  0
 12 10  1  0
  2 13  1  0
  3 14  1  0
  7 15  1  0
  7 16  1  0
  7 17  1  0
  8 18  1  0
  8 19  1  0
  8 20  1  0
 10 21  1  1
 11 22  1  0
 11 23  1  0
 11 24  1  0
 12 25  1  0
 12 26  1  0
 12 27  1  0
M  CHG  1  12   1
M  END
$$$$
=
     RDKit          3D

 41 42  0  0  0  0  0  0  0  0999 V2000
   18.7730   16.5270    3.6350 C   0  0  0  0  0  0  0  0  0  0  0  0
   17.6130   16.1280    4.4620 C   0  0  0  0  0  0  0  0  0  0  0  0
   17.2220   16.3660    5.7600 C   0  0  0  0  0  0  0  0  0  0  0  0
   15.9690   15.7170    5.9190 C   0  0  0  0  0  0  0  0  0  0  0  0
   15.6640   15.1170    4.7120 C   0  0  0  0  0  0  0  0  0  0  0  0
   16.6790   15.3610    3.8300 O   0  0  0  0  0  0  0  0  0  0  0  0
   14.5380   14.3340    4.2060 C   0  0  0  0  0  0  0  0  0  0  0  0
   13.2230   14.7870    4.3930 C   0  0  0  0  0  0  0  0  0  0  0  0
   12.1350   14.0530    3.9080 C   0  0  0  0  0  0  0  0  0  0  0  0
   12.3430   12.8550    3.2280 C   0  0  0  0  0  0  0  0  0  0  0  0
   13.6390   12.3860    3.0340 C   0  0  0  0  0  0  0  0  0  0  0  0
   14.7200   13.1210    3.5210 C   0  0  0  0  0  0  0  0  0  0  0  0
   15.9530   12.6180    3.3280 F   0  0  0  0  0  0  0  0  0  0  0  0
   19.8310   15.4520    3.6000 N   0  0  0  0  0  4  0  0  0  0  0  0
   20.4840   15.0720    4.8950 C   0  0  0  0  0  0  0  0  0  0  0  0
   21.7280   15.9230    5.2650 C   0  0  0  0  0  0  0  0  0  0  0  0
   21.3880   17.0220    6.2220 N   0  0  0  0  0  4  0  0  0  0  0  0
   21.3500   18.4120    5.6080 C   0  0  0  0  0  0  0  0  0  0  0  0
   22.4360   18.4430    4.5290 C   0  0  0  0  0  0  0  0  0  0  0  0
   23.6370   18.8990    5.1710 O   0  0  0  0  0  0  0  0  0  0  0  0
   18.4287   16.7215    2.6086 H   0  0  0  0  0  0  0  0  0  0  0  0
   19.2167   17.4297    4.0803 H   0  0  0  0  0  0  0  0  0  0  0  0
   17.7694   16.9424    6.5204 H   0  0  0  0  0  0  0  0  0  0  0  0
   15.3559   15.6958    6.8320 H   0  0  0  0  0  0  0  0  0  0  0  0
   13.0453   15.7316    4.9279 H   0  0  0  0  0  0  0  0  0  0  0  0
   11.1111   14.4234    4.0643 H   0  0  0  0  0  0  0  0  0  0  0  0
   11.4857   12.2816    2.8456 H   0  0  0  0  0  0  0  0  0  0  0  0
   13.8100   11.4401    2.4991 H   0  0  0  0  0  0  0  0  0  0  0  0
   19.3933   14.6025    3.2157 H   0  0  0  0  0  0  0  0  0  0  0  0
   20.5916   15.8547    3.0341 H   0  0  0  0  0  0  0  0  0  0  0  0
   19.7414   15.1821    5.6990 H   0  0  0  0  0  0  0  0  0  0  0  0
   20.8384   14.0377    4.7739 H   0  0  0  0  0  0  0  0  0  0  0  0
   22.4814   15.2688    5.7280 H   0  0  0  0  0  0  0  0  0  0  0  0
   22.1138   16.3816    4.3426 H   0  0  0  0  0  0  0  0  0  0  0  0
   20.4600   16.8229    6.6222 H   0  0  0  0  0  0  0  0  0  0  0  0
   22.1394   17.0363    6.9263 H   0  0  0  0  0  0  0  0  0  0  0  0
   20.3637   18.6021    5.1595 H   0  0  0  0  0  0  0  0  0  0  0  0
   21.5244   19.1869    6.3690 H   0  0  0  0  0  0  0  0  0  0  0  0
   22.5867   17.4360    4.1127 H   0  0  0  0  0  0  0  0  0  0  0  0
   22.1526   19.1067    3.6988 H   0  0  0  0  0  0  0  0  0  0  0  0
   23.5229   18.8557    6.1534 H   0  0  0  0  0  0  0  0  0  0  0  0
  2  1  1  0
  3  2  2  0
  4  3  1  0
  5  4  2  0
  6  5  1  0
  6  2  1  0
  7  5  1  0
  8  7  2  0
  9  8  1  0
 10  9  2  0
 11 10  1  0
 12 11  2  0
 12  7  1  0
 13 12  1  0
 14  1  1  0
 15 14  1  0
 16 15  1  0
 17 16  1  0
 18 17  1  0
 19 18  1  0
 20 19  1  0
  1 21  1  0
  1 22  1  0
  3 23  1  0
  4 24  1  0
  8 25  1  0
  9 26  1  0
 10 27  1  0
 11 28  1  0
 14 29  1  0
 14 30  1  0
 15 31  1  0
 15 32  1  0
 16 33  1  0
 16 34  1  0
 17 35  1  0
 17 36  1  0
 18 37  1  0
 18 38  1  0
 19 39  1  0
 19 40  1  0
 20 41  1  0
M  CHG  2  14   1  17   1
M  END
$$$$
=
     RDKit          3D

 93 94  0  0  0  0  0  0  0  0999 V2000
   27.7010   29.6470   14.7960 C   0  0  0  0  0  0  0  0  0  0  0  0
   29.1300   29.0950   14.7100 C   0  0  0  0  0  0  0  0  0  0  0  0
   29.9910   29.4670   15.9200 C   0  0  0  0  0  0  0  0  0  0  0  0
   30.1830   28.3090   16.9050 C   0  0  0  0  0  0  0  0  0  0  0  0
   30.3770   26.9570   16.2130 C   0  0  0  0  0  0  0  0  0  0  0  0
   29.3580   25.9280   16.7100 C   0  0  0  0  0  0  0  0  0  0  0  0
   28.7660   25.1310   15.5450 C   0  0  0  0  0  0  0  0  0  0  0  0
   29.6070   25.1960   14.2620 C   0  0  0  0  0  0  0  0  0  0  0  0
   28.9010   25.7820   13.0320 C   0  0  0  0  0  0  0  0  0  0  0  0
   27.6090   25.1540   12.5800 C   0  0  0  0  0  0  0  0  0  0  0  0
   26.7300   25.6490   11.6940 C   0  0  0  0  0  0  0  0  0  0  0  0
   25.4440   24.9600   11.2980 C   0  0  1  0  0  0  0  0  0  0  0  0
   25.7840   23.5840   11.1160 O   0  0  0  0  0  0  0  0  0  0  0  0
   24.3140   25.1210   12.3510 C   0  0  1  0  0  0  0  0  0  0  0  0
   23.8690   26.5300   12.3790 N   0  0  0  0  0  4  0  0  0  0  0  0
   23.1530   24.1440   12.0320 C   0  0  0  0  0  0  0  0  0  0  0  0
   22.0190   24.7310   11.4130 O   0  0  0  0  0  0  0  0  0  0  0  0
   20.8710   23.7210   10.8440 P   0  0  0  0  0  5  0  0  0  0  0  0
   21.2280   23.6840    9.3580 O   0  0  0  0  0  0  0  0  0  0  0  0
   19.5500   24.3070   11.2420 O   0  0  0  0  0  1  0  0  0  0  0  0
   21.2810   22.3740   11.4440 O   0  0  0  0  0  1  0  0  0  0  0  0
   26.7950   28.8210   15.7140 C   0  0  0  0  0  0  0  0  0  0  0  0
   26.2250   27.5680   15.0410 C   0  0  0  0  0  0  0  0  0  0  0  0
   25.2210   26.7570   15.8670 C   0  0  0  0  0  0  0  0  0  0  0  0
   24.7580   27.4240   17.1600 C   0  0  0  0  0  0  0  0  0  0  0  0
   22.0140   27.8220   16.7790 O   0  0  0  0  0  0  0  0  0  0  0  0
   22.3820   26.9860   17.5970 C   0  0  0  0  0  0  0  0  0  0  0  0
   23.7090   26.6780   17.8240 N   0  0  0  0  0  0  0  0  0  0  0  0
   21.4360   26.1630   18.4490 C   0  0  0  0  0  0  0  0  0  0  0  0
   20.3590   25.4710   17.6140 C   0  0  0  0  0  0  0  0  0  0  0  0
   20.3350   23.9620   17.8690 C   0  0  0  0  0  0  0  0  0  0  0  0
   19.2790   23.2730   16.9970 C   0  0  0  0  0  0  0  0  0  0  0  0
   19.1290   23.9130   15.6060 C   0  0  2  0  0  0  0  0  0  0  0  0
   17.3610   24.2560   15.3010 S   0  0  0  0  0  0  0  0  0  0  0  0
   17.0160   22.5760   14.7270 C   0  0  0  0  0  0  0  0  0  0  0  0
   18.2940   22.1230   14.0360 C   0  0  1  0  0  0  0  0  0  0  0  0
   19.4760   23.0540   14.3770 C   0  0  2  0  0  0  0  0  0  0  0  0
   20.5740   22.1370   14.5380 N   0  0  0  0  0  0  0  0  0  0  0  0
   20.1460   20.8260   14.5720 C   0  0  0  0  0  0  0  0  0  0  0  0
   20.8590   19.8470   14.6670 O   0  0  0  0  0  0  0  0  0  0  0  0
   18.7690   20.8190   14.4450 N   0  0  0  0  0  0  0  0  0  0  0  0
   27.7454   30.6764   15.1811 H   0  0  0  0  0  0  0  0  0  0  0  0
   27.2706   29.6054   13.7846 H   0  0  0  0  0  0  0  0  0  0  0  0
   29.0782   27.9984   14.6410 H   0  0  0  0  0  0  0  0  0  0  0  0
   29.6014   29.5416   13.8221 H   0  0  0  0  0  0  0  0  0  0  0  0
   30.9799   29.7869   15.5599 H   0  0  0  0  0  0  0  0  0  0  0  0
   29.4669   30.2701   16.4588 H   0  0  0  0  0  0  0  0  0  0  0  0
   31.0700   28.5172   17.5213 H   0  0  0  0  0  0  0  0  0  0  0  0
   29.2675   28.2388   17.5107 H   0  0  0  0  0  0  0  0  0  0  0  0
   30.2536   27.0886   15.1279 H   0  0  0  0  0  0  0  0  0  0  0  0
   31.3864   26.5880   16.4473 H   0  0  0  0  0  0  0  0  0  0  0  0
   29.8567   25.2344   17.4030 H   0  0  0  0  0  0  0  0  0  0  0  0
   28.5417   26.4622   17.2181 H   0  0  0  0  0  0  0  0  0  0  0  0
   28.6817   24.0781   15.8520 H   0  0  0  0  0  0  0  0  0  0  0  0
   27.7891   25.5799   15.3120 H   0  0  0  0  0  0  0  0  0  0  0  0
   30.4928   25.8142   14.4696 H   0  0  0  0  0  0  0  0  0  0  0  0
   29.8414   24.1526   14.0042 H   0  0  0  0  0  0  0  0  0  0  0  0
   28.6894   26.8389   13.2515 H   0  0  0  0  0  0  0  0  0  0  0  0
   29.5987   25.5906   12.2034 H   0  0  0  0  0  0  0  0  0  0  0  0
   27.3572   24.1804   13.0258 H   0  0  0  0  0  0  0  0  0  0  0  0
   26.9603   26.6177   11.2264 H   0  0  0  0  0  0  0  0  0  0  0  0
   25.0374   25.4145   10.3825 H   0  0  0  0  0  0  0  0  0  0  0  0
   25.8910   23.1508   11.9998 H   0  0  0  0  0  0  0  0  0  0  0  0
   24.6876   24.8663   13.3538 H   0  0  0  0  0  0  0  0  0  0  0  0
   23.7712   26.8398   13.3564 H   0  0  0  0  0  0  0  0  0  0  0  0
   24.5648   27.1194   11.9000 H   0  0  0  0  0  0  0  0  0  0  0  0
   22.9609   26.6128   11.9000 H   0  0  0  0  0  0  0  0  0  0  0  0
   23.5405   23.3634   11.3608 H   0  0  0  0  0  0  0  0  0  0  0  0
   22.8048   23.7586   13.0016 H   0  0  0  0  0  0  0  0  0  0  0  0
   27.3796   28.5095   16.5922 H   0  0  0  0  0  0  0  0  0  0  0  0
   25.9416   29.4591   15.9870 H   0  0  0  0  0  0  0  0  0  0  0  0
   25.7216   27.8832   14.1151 H   0  0  0  0  0  0  0  0  0  0  0  0
   27.0849   26.9005   14.8825 H   0  0  0  0  0  0  0  0  0  0  0  0
   24.3347   26.5735   15.2418 H   0  0  0  0  0  0  0  0  0  0  0  0
   25.7435   25.8366   16.1670 H   0  0  0  0  0  0  0  0  0  0  0  0
   25.6175   27.5070   17.8415 H   0  0  0  0  0  0  0  0  0  0  0  0
   24.3517   28.4124   16.8994 H   0  0  0  0  0  0  0  0  0  0  0  0
   23.9541   25.9134   18.4692 H   0  0  0  0  0  0  0  0  0  0  0  0
   22.0166   25.3966   18.9833 H   0  0  0  0  0  0  0  0  0  0  0  0
   20.9328   26.8456   19.1496 H   0  0  0  0  0  0  0  0  0  0  0  0
   19.3776   25.8934   17.8755 H   0  0  0  0  0  0  0  0  0  0  0  0
   20.5863   25.6378   16.5507 H   0  0  0  0  0  0  0  0  0  0  0  0
   21.3243   23.5420   17.6348 H   0  0  0  0  0  0  0  0  0  0  0  0
   20.0829   23.7896   18.9258 H   0  0  0  0  0  0  0  0  0  0  0  0
   19.5662   22.2191   16.8676 H   0  0  0  0  0  0  0  0  0  0  0  0
   18.3121   23.3782   17.5108 H   0  0  0  0  0  0  0  0  0  0  0  0
   19.8253   24.7620   15.6723 H   0  0  0  0  0  0  0  0  0  0  0  0
   16.7823   21.9179   15.5769 H   0  0  0  0  0  0  0  0  0  0  0  0
   16.1479   22.5410   14.0523 H   0  0  0  0  0  0  0  0  0  0  0  0
   18.0113   22.1232   12.9729 H   0  0  0  0  0  0  0  0  0  0  0  0
   19.7287   23.8071   13.6161 H   0  0  0  0  0  0  0  0  0  0  0  0
   21.5597   22.4249   14.6181 H   0  0  0  0  0  0  0  0  0  0  0  0
   18.1668   20.0013   14.6172 H   0  0  0  0  0  0  0  0  0  0  0  0
  2  1  1  0
  3  2  1  0
  4  3  1  0
  5  4  1  0
  6  5  1  0
  7  6  1  0
  8  7  1  0
  9  8  1  0
 10  9  1  0
 11 10  2  0
 12 11  1  0
 13 12  1  0
 14 12  1  0
 15 14  1  0
 16 14  1  0
 17 16  1  0
 18 17  1  0
 19 18  2  0
 20 18  1  0
 21 18  1  0
 22  1  1  0
 23 22  1  0
 24 23  1  0
 25 24  1  0
 27 26  2  0
 28 27  1  0
 28 25  1  0
 29 27  1  0
 30 29  1  0
 31 30  1  0
 32 31  1  0
 33 32  1  0
 34 33  1  0
 35 34  1  0
 36 35  1  0
 37 36  1  0
 37 33  1  0
 38 37  1  0
 39 38  1  0
 40 39  2  0
 41 39  1  0
 41 36  1  0
  1 42  1  0
  1 43  1  0
  2 44  1  0
  2 45  1  0
  3 46  1  0
  3 47  1  0
  4 48  1  0
  4 49  1  0
  5 50  1  0
  5 51  1  0
  6 52  1  0
  6 53  1  0
  7 54  1  0
  7 55  1  0
  8 56  1  0
  8 57  1  0
  9 58  1  0
  9 59  1  0
 10 60  1  0
 11 61  1  0
 12 62  1  6
 13 63  1  0
 14 64  1  1
 15 65  1  0
 15 66  1  0
 15 67  1  0
 16 68  1  0
 16 69  1  0
 22 70  1  0
 22 71  1  0
 23 72  1  0
 23 73  1  0
 24 74  1  0
 24 75  1  0
 25 76  1  0
 25 77  1  0
 28 78  1  0
 29 79  1  0
 29 80  1  0
 30 81  1  0
 30 82  1  0
 31 83  1  0
 31 84  1  0
 32 85  1  0
 32 86  1  0
 33 87  1  1
 35 88  1  0
 35 89  1  0
 36 90  1  6
 37 91  1  6
 38 92  1  0
 41 93  1  0
M  CHG  3  15   1  20  -1  21  -1
M  END
$$$$
=
     RDKit          3D

 25 25  0  0  0  0  0  0  0  0999 V2000
   19.8110   14.9660    5.3190 C   0  0  1  0  0  0  0  0  0  0  0  0
   18.5560   15.7310    5.7120 C   0  0  0  0  0  0  0  0  0  0  0  0
   17.7930   15.8520    4.4140 C   0  0  0  0  0  0  0  0  0  0  0  0
   18.8960   15.9380    3.3800 C   0  0  2  0  0  0  0  0  0  0  0  0
   19.9930   15.1590    3.8970 O   0  0  0  0  0  0  0  0  0  0  0  0
   21.0100   15.4460    6.1390 C   0  0  0  0  0  0  0  0  0  0  0  0
   21.0890   15.3570    7.3550 O   0  0  0  0  0  0  0  0  0  0  0  0
   22.2610   17.3820    5.7420 C   0  0  0  0  0  0  0  0  0  0  0  0
   21.9450   16.0460    5.3330 O   0  0  0  0  0  0  0  0  0  0  0  0
   19.4150   17.3640    3.1370 C   0  0  0  0  0  0  0  0  0  0  0  0
   19.8570   17.4550    1.7160 N   0  0  0  0  0  4  0  0  0  0  0  0
   19.7152   13.8912    5.5325 H   0  0  0  0  0  0  0  0  0  0  0  0
   17.9735   15.1725    6.4595 H   0  0  0  0  0  0  0  0  0  0  0  0
   18.7759   16.7061    6.1711 H   0  0  0  0  0  0  0  0  0  0  0  0
   17.1590   14.9693    4.2439 H   0  0  0  0  0  0  0  0  0  0  0  0
   17.1082   16.7125    4.3912 H   0  0  0  0  0  0  0  0  0  0  0  0
   18.4939   15.5791    2.4211 H   0  0  0  0  0  0  0  0  0  0  0  0
   22.2737   17.4358    6.8406 H   0  0  0  0  0  0  0  0  0  0  0  0
   23.2500   17.6613    5.3497 H   0  0  0  0  0  0  0  0  0  0  0  0
   21.5019   18.0748    5.3497 H   0  0  0  0  0  0  0  0  0  0  0  0
   18.6117   18.0913    3.3258 H   0  0  0  0  0  0  0  0  0  0  0  0
   20.2528   17.5873    3.8139 H   0  0  0  0  0  0  0  0  0  0  0  0
   20.8653   17.6626    1.6827 H   0  0  0  0  0  0  0  0  0  0  0  0
   19.6751   16.5589    1.2418 H   0  0  0  0  0  0  0  0  0  0  0  0
   19.3359   18.2064    1.2418 H   0  0  0  0  0  0  0  0  0  0  0  0
  2  1  1  0
  3  2  1  0
  4  3  1  0
  5  4  1  0
  5  1  1  0
  6  1  1  0
  7  6  2  0
  9  6  1  0
  9  8  1  0
 10  4  1  0
 11 10  1  0
  1 12  1  6
  2 13  1  0
  2 14  1  0
  3 15  1  0
  3 16  1  0
  4 17  1  6
  8 18  1  0
  8 19  1  0
  8 20  1  0
 10 21  1  0
 10 22  1  0
 11 23  1  0
 11 24  1  0
 11 25  1  0
M  CHG  1  11   1
M  END
$$$$
=
     RDKit          3D

 30 31  0  0  0  0  0  0  0  0999 V2000
   19.1400   15.6250    5.6220 N   0  0  0  0  0  0  0  0  0  0  0  0
   16.9370   17.0260    6.5580 F   0  0  0  0  0  0  0  0  0  0  0  0
   16.7600   16.1910    5.5230 C   0  0  0  0  0  0  0  0  0  0  0  0
   15.4860   16.0500    4.9760 C   0  0  0  0  0  0  0  0  0  0  0  0
   15.2870   15.1760    3.9080 C   0  0  0  0  0  0  0  0  0  0  0  0
   16.3630   14.4510    3.3980 C   0  0  0  0  0  0  0  0  0  0  0  0
   17.6310   14.6050    3.9590 C   0  0  0  0  0  0  0  0  0  0  0  0
   17.8630   15.4770    5.0300 C   0  0  0  0  0  0  0  0  0  0  0  0
   18.6540   13.8960    3.4490 F   0  0  0  0  0  0  0  0  0  0  0  0
   20.1880   16.3360    4.8770 C   0  0  1  0  0  0  0  0  0  0  0  0
   19.7770   17.5580    4.0700 C   0  0  0  0  0  0  0  0  0  0  0  0
   21.1120   18.2700    3.7770 C   0  0  0  0  0  0  0  0  0  0  0  0
   22.1710   17.6260    4.6900 C   0  0  0  0  0  0  0  0  0  0  0  0
   21.3440   16.8830    5.7220 C   0  0  2  0  0  0  0  0  0  0  0  0
   22.0710   15.7900    6.3930 N   0  0  0  0  0  4  0  0  0  0  0  0
   19.3313   15.2411    6.5584 H   0  0  0  0  0  0  0  0  0  0  0  0
   14.6420   16.6251    5.3846 H   0  0  0  0  0  0  0  0  0  0  0  0
   14.2850   15.0590    3.4696 H   0  0  0  0  0  0  0  0  0  0  0  0
   16.2127   13.7596    2.5558 H   0  0  0  0  0  0  0  0  0  0  0  0
   20.4721   15.4982    4.2233 H   0  0  0  0  0  0  0  0  0  0  0  0
   19.2778   17.2611    3.1358 H   0  0  0  0  0  0  0  0  0  0  0  0
   19.0606   18.1996    4.6040 H   0  0  0  0  0  0  0  0  0  0  0  0
   21.3895   18.1343    2.7213 H   0  0  0  0  0  0  0  0  0  0  0  0
   21.0324   19.3505    3.9670 H   0  0  0  0  0  0  0  0  0  0  0  0
   22.8089   16.9317    4.1234 H   0  0  0  0  0  0  0  0  0  0  0  0
   22.8550   18.3618    5.1381 H   0  0  0  0  0  0  0  0  0  0  0  0
   21.0395   17.5350    6.5540 H   0  0  0  0  0  0  0  0  0  0  0  0
   21.9955   15.9035    7.4139 H   0  0  0  0  0  0  0  0  0  0  0  0
   21.6625   14.8857    6.1169 H   0  0  0  0  0  0  0  0  0  0  0  0
   23.0629   15.8172    6.1169 H   0  0  0  0  0  0  0  0  0  0  0  0
  3  2  1  0
  4  3  2  0
  5  4  1  0
  6  5  2  0
  7  6  1  0
  8  7  2  0
  8  3  1  0
  8  1  1  0
  9  7  1  0
 10  1  1  0
 11 10  1  0
 12 11  1  0
 13 12  1  0
 14 10  1  0
 14 13  1  0
 15 14  1  0
  1 16  1  0
  4 17  1  0
  5 18  1  0
  6 19  1  0
 10 20  1  6
 11 21  1  0
 11 22  1  0
 12 23  1  0
 12 24  1  0
 13 25  1  0
 13 26  1  0
 14 27  1  1
 15 28  1  0
 15 29  1  0
 15 30  1  0
M  CHG  1  15   1
M  END
$$$$
=
     RDKit          3D

 27 28  0  0  0  0  0  0  0  0999 V2000
   13.0170   12.6490    3.1110 C   0  0  0  0  0  0  0  0  0  0  0  0
   12.6040   13.7550    3.8520 C   0  0  0  0  0  0  0  0  0  0  0  0
   13.5310   14.6890    4.3280 C   0  0  0  0  0  0  0  0  0  0  0  0
   14.8970   14.5530    4.0410 C   0  0  0  0  0  0  0  0  0  0  0  0
   15.3020   13.4710    3.2450 C   0  0  0  0  0  0  0  0  0  0  0  0
   14.3670   12.5430    2.7740 C   0  0  0  0  0  0  0  0  0  0  0  0
   15.8650   15.6030    4.5160 C   0  0  1  0  0  0  0  0  0  0  0  0
   16.0540   15.7400    6.0260 C   0  0  0  0  0  0  0  0  0  0  0  0
   17.4190   16.3950    6.1330 C   0  0  0  0  0  0  0  0  0  0  0  0
   18.2380   15.6620    5.0890 C   0  0  0  0  0  0  0  0  0  0  0  0
   17.2600   15.3480    4.0030 N   0  0  0  0  0  4  0  0  0  0  0  0
   12.0760   11.8020    2.5250 N   0  0  0  0  0  0  0  0  0  0  0  0
   11.5342   13.8956    4.0657 H   0  0  0  0  0  0  0  0  0  0  0  0
   13.1845   15.5392    4.9339 H   0  0  0  0  0  0  0  0  0  0  0  0
   16.3650   13.3512    2.9887 H   0  0  0  0  0  0  0  0  0  0  0  0
   14.7010   11.7174    2.1284 H   0  0  0  0  0  0  0  0  0  0  0  0
   15.3891   16.5148    4.1259 H   0  0  0  0  0  0  0  0  0  0  0  0
   15.2729   16.3764    6.4675 H   0  0  0  0  0  0  0  0  0  0  0  0
   15.9858   14.7825    6.5632 H   0  0  0  0  0  0  0  0  0  0  0  0
   17.3598   17.4695    5.9049 H   0  0  0  0  0  0  0  0  0  0  0  0
   17.8503   16.3305    7.1429 H   0  0  0  0  0  0  0  0  0  0  0  0
   19.0484   16.3021    4.7100 H   0  0  0  0  0  0  0  0  0  0  0  0
   18.7209   14.7597    5.4923 H   0  0  0  0  0  0  0  0  0  0  0  0
   17.3527   14.3595    3.7290 H   0  0  0  0  0  0  0  0  0  0  0  0
   17.4452   15.9428    3.1828 H   0  0  0  0  0  0  0  0  0  0  0  0
   12.3871   10.9862    1.9785 H   0  0  0  0  0  0  0  0  0  0  0  0
   11.0702   11.9924    2.6388 H   0  0  0  0  0  0  0  0  0  0  0  0
  2  1  2  0
  3  2  1  0
  4  3  2  0
  5  4  1  0
  6  5  2  0
  6  1  1  0
  7  4  1  0
  8  7  1  0
  9  8  1  0
 10  9  1  0
 11  7  1  0
 11 10  1  0
 12  1  1  0
  2 13  1  0
  3 14  1  0
  5 15  1  0
  6 16  1  0
  7 17  1  6
  8 18  1  0
  8 19  1  0
  9 20  1  0
  9 21  1  0
 10 22  1  0
 10 23  1  0
 11 24  1  0
 11 25  1  0
 12 26  1  0
 12 27  1  0
M  CHG  1  11   1
M  END
$$$$
=
     RDKit          3D

 43 44  0  0  0  0  0  0  0  0999 V2000
   17.5930   15.5790    5.2330 N   0  0  0  0  0  4  0  0  0  0  0  0
   17.3130   15.3260    3.7790 C   0  0  0  0  0  0  0  0  0  0  0  0
   13.7190   14.0080    3.8670 C   0  0  0  0  0  0  0  0  0  0  0  0
   13.8770   12.7490    3.3020 C   0  0  0  0  0  0  0  0  0  0  0  0
   15.1450   12.3290    2.8820 C   0  0  0  0  0  0  0  0  0  0  0  0
   16.2580   13.1640    3.0230 C   0  0  0  0  0  0  0  0  0  0  0  0
   16.1190   14.4420    3.5780 C   0  0  0  0  0  0  0  0  0  0  0  0
   14.8420   14.8350    3.9990 C   0  0  0  0  0  0  0  0  0  0  0  0
   11.6790   13.6900    5.0460 C   0  0  0  0  0  0  0  0  0  0  0  0
   12.5530   14.5600    4.3270 O   0  0  0  0  0  0  0  0  0  0  0  0
   14.6820   16.0920    4.5470 O   0  0  0  0  0  0  0  0  0  0  0  0
   18.9520   15.2410    5.7440 C   0  0  0  0  0  0  0  0  0  0  0  0
   20.0060   15.0990    4.6090 C   0  0  0  0  0  0  0  0  0  0  0  0
   21.0450   16.1970    4.6160 N   0  0  0  0  0  4  0  0  0  0  0  0
   20.6040   17.5430    4.0380 C   0  0  0  0  0  0  0  0  0  0  0  0
   21.8400   18.4520    3.9010 C   0  0  0  0  0  0  0  0  0  0  0  0
   22.9530   17.9420    4.6480 O   0  0  0  0  0  0  0  0  0  0  0  0
   22.5830   17.6420    5.9990 C   0  0  0  0  0  0  0  0  0  0  0  0
   21.6360   16.4320    6.0240 C   0  0  0  0  0  0  0  0  0  0  0  0
   17.4397   16.5827    5.4061 H   0  0  0  0  0  0  0  0  0  0  0  0
   16.9590   14.9418    5.7358 H   0  0  0  0  0  0  0  0  0  0  0  0
   17.1286   16.2892    3.2809 H   0  0  0  0  0  0  0  0  0  0  0  0
   18.1877   14.8149    3.3505 H   0  0  0  0  0  0  0  0  0  0  0  0
   13.0087   12.0839    3.1849 H   0  0  0  0  0  0  0  0  0  0  0  0
   15.2671   11.3309    2.4361 H   0  0  0  0  0  0  0  0  0  0  0  0
   17.2485   12.8147    2.6960 H   0  0  0  0  0  0  0  0  0  0  0  0
   11.8247   13.8351    6.1266 H   0  0  0  0  0  0  0  0  0  0  0  0
   10.6358   13.9188    4.7827 H   0  0  0  0  0  0  0  0  0  0  0  0
   11.9030   12.6457    4.7827 H   0  0  0  0  0  0  0  0  0  0  0  0
   13.7879   16.3894    4.8509 H   0  0  0  0  0  0  0  0  0  0  0  0
   19.2781   16.0380    6.4284 H   0  0  0  0  0  0  0  0  0  0  0  0
   18.8814   14.2685    6.2532 H   0  0  0  0  0  0  0  0  0  0  0  0
   20.5184   14.1329    4.7275 H   0  0  0  0  0  0  0  0  0  0  0  0
   19.4662   15.1679    3.6531 H   0  0  0  0  0  0  0  0  0  0  0  0
   21.7625   15.8273    3.9762 H   0  0  0  0  0  0  0  0  0  0  0  0
   20.1466   17.3891    3.0495 H   0  0  0  0  0  0  0  0  0  0  0  0
   19.8660   18.0128    4.7048 H   0  0  0  0  0  0  0  0  0  0  0  0
   22.1210   18.5155    2.8394 H   0  0  0  0  0  0  0  0  0  0  0  0
   21.5837   19.4452    4.2984 H   0  0  0  0  0  0  0  0  0  0  0  0
   23.4866   17.4104    6.5821 H   0  0  0  0  0  0  0  0  0  0  0  0
   22.0716   18.5120    6.4368 H   0  0  0  0  0  0  0  0  0  0  0  0
   20.8189   16.6231    6.7352 H   0  0  0  0  0  0  0  0  0  0  0  0
   22.1981   15.5388    6.3343 H   0  0  0  0  0  0  0  0  0  0  0  0
  2  1  1  0
  4  3  2  0
  5  4  1  0
  6  5  2  0
  7  6  1  0
  7  2  1  0
  8  7  2  0
  8  3  1  0
 10  9  1  0
 10  3  1  0
 11  8  1  0
 12  1  1  0
 13 12  1  0
 14 13  1  0
 15 14  1  0
 16 15  1  0
 17 16  1  0
 18 17  1  0
 19 14  1  0
 19 18  1  0
  1 20  1  0
  1 21  1  0
  2 22  1  0
  2 23  1  0
  4 24  1  0
  5 25  1  0
  6 26  1  0
  9 27  1  0
  9 28  1  0
  9 29  1  0
 11 30  1  0
 12 31  1  0
 12 32  1  0
 13 33  1  0
 13 34  1  0
 14 35  1  0
 15 36  1  0
 15 37  1  0
 16 38  1  0
 16 39  1  0
 18 40  1  0
 18 41  1  0
 19 42  1  0
 19 43  1  0
M  CHG  2   1   1  14   1
M  END
$$$$
=
     RDKit          3D

 40 40  0  0  0  0  0  0  0  0999 V2000
   15.5220   14.7440    3.6480 N   0  0  2  0  0  4  0  0  0  0  0  0
   16.6690   15.3510    4.4940 C   0  0  2  0  0  0  0  0  0  0  0  0
   16.2090   16.2910    5.6290 C   0  0  0  0  0  0  0  0  0  0  0  0
   17.3120   17.2940    6.0610 C   0  0  0  0  0  0  0  0  0  0  0  0
   18.7480   16.8260    5.7670 C   0  0  0  0  0  0  0  0  0  0  0  0
   18.8900   16.2660    4.4150 N   0  0  0  0  0  0  0  0  0  0  0  0
   17.6620   16.1650    3.6430 C   0  0  0  0  0  0  0  0  0  0  0  0
   19.8460   15.2790    4.1630 C   0  0  0  0  0  0  0  0  0  0  0  0
   19.5910   14.3410    3.4020 O   0  0  0  0  0  0  0  0  0  0  0  0
   21.1560   15.3910    4.8980 C   0  0  0  0  0  0  0  0  0  0  0  0
   14.1300   15.2340    4.0510 C   0  0  0  0  0  0  0  0  0  0  0  0
   13.1480   14.1000    4.2800 C   0  0  0  0  0  0  0  0  0  0  0  0
   15.6610   13.2020    3.6210 C   0  0  0  0  0  0  0  0  0  0  0  0
   16.4990   12.6340    2.4460 C   0  0  0  0  0  0  0  0  0  0  0  0
   17.8570   12.1950    2.8920 N   0  0  0  0  0  4  0  0  0  0  0  0
   15.6192   15.0897    2.6826 H   0  0  0  0  0  0  0  0  0  0  0  0
   17.1408   14.4578    4.9294 H   0  0  0  0  0  0  0  0  0  0  0  0
   15.3332   16.8591    5.2821 H   0  0  0  0  0  0  0  0  0  0  0  0
   15.9690   15.6654    6.5014 H   0  0  0  0  0  0  0  0  0  0  0  0
   17.1432   18.2414    5.5282 H   0  0  0  0  0  0  0  0  0  0  0  0
   17.2328   17.3960    7.1534 H   0  0  0  0  0  0  0  0  0  0  0  0
   19.4269   17.6858    5.8662 H   0  0  0  0  0  0  0  0  0  0  0  0
   18.9954   16.0315    6.4864 H   0  0  0  0  0  0  0  0  0  0  0  0
   17.2565   17.1678    3.4430 H   0  0  0  0  0  0  0  0  0  0  0  0
   17.8434   15.6782    2.6734 H   0  0  0  0  0  0  0  0  0  0  0  0
   20.9707   15.3752    5.9822 H   0  0  0  0  0  0  0  0  0  0  0  0
   21.8035   14.5449    4.6243 H   0  0  0  0  0  0  0  0  0  0  0  0
   21.6505   16.3347    4.6243 H   0  0  0  0  0  0  0  0  0  0  0  0
   14.2181   15.8151    4.9808 H   0  0  0  0  0  0  0  0  0  0  0  0
   13.7421   15.8441    3.2220 H   0  0  0  0  0  0  0  0  0  0  0  0
   13.0132   13.9443    5.3605 H   0  0  0  0  0  0  0  0  0  0  0  0
   12.1805   14.3548    3.8227 H   0  0  0  0  0  0  0  0  0  0  0  0
   13.5384   13.1789    3.8227 H   0  0  0  0  0  0  0  0  0  0  0  0
   16.1366   12.8869    4.5615 H   0  0  0  0  0  0  0  0  0  0  0  0
   14.6431   12.8065    3.4886 H   0  0  0  0  0  0  0  0  0  0  0  0
   15.9695   11.7711    2.0159 H   0  0  0  0  0  0  0  0  0  0  0  0
   16.6262   13.4325    1.7002 H   0  0  0  0  0  0  0  0  0  0  0  0
   17.8932   12.1833    3.9213 H   0  0  0  0  0  0  0  0  0  0  0  0
   18.0479   11.2494    2.5310 H   0  0  0  0  0  0  0  0  0  0  0  0
   18.5653   12.8499    2.5310 H   0  0  0  0  0  0  0  0  0  0  0  0
  2  1  1  0
  3  2  1  0
  4  3  1  0
  5  4  1  0
  6  5  1  0
  7  6  1  0
  7  2  1  0
  8  6  1  0
  9  8  2  0
 10  8  1  0
 11  1  1  0
 12 11  1  0
 13  1  1  0
 14 13  1  0
 15 14  1  0
  1 16  1  6
  2 17  1  1
  3 18  1  0
  3 19  1  0
  4 20  1  0
  4 21  1  0
  5 22  1  0
  5 23  1  0
  7 24  1  0
  7 25  1  0
 10 26  1  0
 10 27  1  0
 10 28  1  0
 11 29  1  0
 11 30  1  0
 12 31  1  0
 12 32  1  0
 12 33  1  0
 13 34  1  0
 13 35  1  0
 14 36  1  0
 14 37  1  0
 15 38  1  0
 15 39  1  0
 15 40  1  0
M  CHG  2   1   1  15   1
M  END
$$$$
=
     RDKit          3D

 18 18  0  0  0  0  0  0  0  0999 V2000
   16.6330   14.7900    3.7890 C   0  0  0  0  0  0  0  0  0  0  0  0
   15.7200   15.5580    4.5120 C   0  0  0  0  0  0  0  0  0  0  0  0
   16.0810   16.7100    5.0970 F   0  0  0  0  0  0  0  0  0  0  0  0
   14.3880   15.1630    4.6450 C   0  0  0  0  0  0  0  0  0  0  0  0
   13.9450   13.9750    4.0620 C   0  0  0  0  0  0  0  0  0  0  0  0
   14.8420   13.1560    3.3760 C   0  0  0  0  0  0  0  0  0  0  0  0
   16.1670   13.6010    3.2140 C   0  0  0  0  0  0  0  0  0  0  0  0
   17.0120   12.8370    2.4990 F   0  0  0  0  0  0  0  0  0  0  0  0
   14.3710   12.0270    2.6850 N   0  0  0  0  0  0  0  0  0  0  0  0
   18.8770   14.6990    4.5870 C   0  0  0  0  0  0  0  0  0  0  0  0
   17.9550   15.0680    3.5710 O   0  0  0  0  0  0  0  0  0  0  0  0
   13.6845   15.7907    5.2117 H   0  0  0  0  0  0  0  0  0  0  0  0
   12.8873   13.6841    4.1435 H   0  0  0  0  0  0  0  0  0  0  0  0
   15.0316   11.4209    2.1778 H   0  0  0  0  0  0  0  0  0  0  0  0
   13.3651   11.8054    2.6856 H   0  0  0  0  0  0  0  0  0  0  0  0
   18.4264   14.8793    5.5741 H   0  0  0  0  0  0  0  0  0  0  0  0
   19.1255   13.6321    4.4867 H   0  0  0  0  0  0  0  0  0  0  0  0
   19.7929   15.2998    4.4867 H   0  0  0  0  0  0  0  0  0  0  0  0
  2  1  2  0
  3  2  1  0
  4  2  1  0
  5  4  2  0
  6  5  1  0
  7  6  2  0
  7  1  1  0
  8  7  1  0
  9  6  1  0
 11 10  1  0
 11  1  1  0
  4 12  1  0
  5 13  1  0
  9 14  1  0
  9 15  1  0
 10 16  1  0
 10 17  1  0
 10 18  1  0
M  END
$$$$
=
     RDKit          3D

 32 32  0  0  0  0  0  0  0  0999 V2000
   16.5810   15.0010    4.0550 C   0  0  0  0  0  0  0  0  0  0  0  0
   15.6080   15.1020    5.0500 C   0  0  0  0  0  0  0  0  0  0  0  0
   15.9230   15.6810    6.2810 C   0  0  0  0  0  0  0  0  0  0  0  0
   17.2090   16.1640    6.5170 C   0  0  0  0  0  0  0  0  0  0  0  0
   18.1780   16.0920    5.5140 C   0  0  0  0  0  0  0  0  0  0  0  0
   17.8560   15.5430    4.2710 C   0  0  0  0  0  0  0  0  0  0  0  0
   16.1750   14.4230    2.8810 O   0  0  0  0  0  0  0  0  0  0  0  0
   16.2820   12.9970    2.8800 C   0  0  0  0  0  0  0  0  0  0  0  0
   14.9440   12.4360    2.4120 C   0  0  0  0  0  0  0  0  0  0  0  0
   13.9620   12.3050    3.5600 C   0  0  0  0  0  0  0  0  0  0  0  0
   12.6140   12.0180    3.0070 N   0  0  0  0  0  4  0  0  0  0  0  0
   18.8080   15.4850    3.2830 O   0  0  0  0  0  0  0  0  0  0  0  0
   19.9490   16.3070    3.6120 C   0  0  0  0  0  0  0  0  0  0  0  0
   19.8840   17.6040    2.8210 C   0  0  0  0  0  0  0  0  0  0  0  0
   19.2250   18.5680    3.4920 F   0  0  0  0  0  0  0  0  0  0  0  0
   19.2350   17.4340    1.6300 F   0  0  0  0  0  0  0  0  0  0  0  0
   21.1140   18.0710    2.5180 F   0  0  0  0  0  0  0  0  0  0  0  0
   14.5914   14.7250    4.8644 H   0  0  0  0  0  0  0  0  0  0  0  0
   15.1554   15.7560    7.0653 H   0  0  0  0  0  0  0  0  0  0  0  0
   17.4608   16.6022    7.4940 H   0  0  0  0  0  0  0  0  0  0  0  0
   19.1945   16.4676    5.7030 H   0  0  0  0  0  0  0  0  0  0  0  0
   17.0819   12.6811    2.1942 H   0  0  0  0  0  0  0  0  0  0  0  0
   16.5259   12.6267    3.8867 H   0  0  0  0  0  0  0  0  0  0  0  0
   14.5194   13.1107    1.6541 H   0  0  0  0  0  0  0  0  0  0  0  0
   15.1185   11.4343    1.9922 H   0  0  0  0  0  0  0  0  0  0  0  0
   14.2733   11.4824    4.2206 H   0  0  0  0  0  0  0  0  0  0  0  0
   13.9370   13.2401    4.1387 H   0  0  0  0  0  0  0  0  0  0  0  0
   11.9487   11.8763    3.7804 H   0  0  0  0  0  0  0  0  0  0  0  0
   12.3041   12.8119    2.4285 H   0  0  0  0  0  0  0  0  0  0  0  0
   12.6543   11.1667    2.4285 H   0  0  0  0  0  0  0  0  0  0  0  0
   19.9399   16.5331    4.6885 H   0  0  0  0  0  0  0  0  0  0  0  0
   20.8742   15.7687    3.3584 H   0  0  0  0  0  0  0  0  0  0  0  0
  2  1  2  0
  3  2  1  0
  4  3  2  0
  5  4  1  0
  6  1  1  0
  6  5  2  0
  7  1  1  0
  8  7  1  0
  9  8  1  0
 10  9  1  0
 11 10  1  0
 12  6  1  0
 13 12  1  0
 14 13  1  0
 15 14  1  0
 16 14  1  0
 17 14  1  0
  2 18  1  0
  3 19  1  0
  4 20  1  0
  5 21  1  0
  8 22  1  0
  8 23  1  0
  9 24  1  0
  9 25  1  0
 10 26  1  0
 10 27  1  0
 11 28  1  0
 11 29  1  0
 11 30  1  0
 13 31  1  0
 13 32  1  0
M  CHG  1  11   1
M  END
$$$$
=
     RDKit          3D

 43 44  0  0  0  0  0  0  0  0999 V2000
   18.9310   14.1040    3.4220 N   0  0  0  0  0  4  0  0  0  0  0  0
   19.3840   14.2200    4.8180 C   0  0  0  0  0  0  0  0  0  0  0  0
   19.5190   16.7310    5.0170 N   0  0  0  0  0  0  0  0  0  0  0  0
   20.3940   17.7260    5.2200 N   0  0  0  0  0  0  0  0  0  0  0  0
   21.5510   17.1220    5.4930 C   0  0  0  0  0  0  0  0  0  0  0  0
   21.4230   15.7200    5.4130 C   0  0  0  0  0  0  0  0  0  0  0  0
   20.1030   15.4860    5.0640 C   0  0  0  0  0  0  0  0  0  0  0  0
   22.7550   17.9240    5.8230 C   0  0  0  0  0  0  0  0  0  0  0  0
   18.1220   17.0820    4.8110 C   0  0  0  0  0  0  0  0  0  0  0  0
   16.6650   15.9080    6.5400 C   0  0  0  0  0  0  0  0  0  0  0  0
   17.3210   17.2110    6.1060 C   0  0  0  0  0  0  0  0  0  0  0  0
   18.1120   12.9010    3.0660 C   0  0  0  0  0  0  0  0  0  0  0  0
   16.6660   13.2570    3.1880 C   0  0  0  0  0  0  0  0  0  0  0  0
   16.0720   14.5230    3.3590 C   0  0  0  0  0  0  0  0  0  0  0  0
   14.7220   14.2700    3.4150 C   0  0  0  0  0  0  0  0  0  0  0  0
   14.5740   12.9190    3.2860 N   0  0  0  0  0  0  0  0  0  0  0  0
   15.7530   12.2690    3.1350 N   0  0  0  0  0  0  0  0  0  0  0  0
   13.3230   12.1810    3.2890 C   0  0  0  0  0  0  0  0  0  0  0  0
   12.1190   13.0990    3.1810 C   0  0  0  0  0  0  0  0  0  0  0  0
   18.3652   14.9380    3.2094 H   0  0  0  0  0  0  0  0  0  0  0  0
   19.7950   14.0102    2.8693 H   0  0  0  0  0  0  0  0  0  0  0  0
   18.5071   14.1753    5.4806 H   0  0  0  0  0  0  0  0  0  0  0  0
   20.0783   13.3909    5.0194 H   0  0  0  0  0  0  0  0  0  0  0  0
   22.2072   14.9693    5.5906 H   0  0  0  0  0  0  0  0  0  0  0  0
   22.8606   17.9943    6.9157 H   0  0  0  0  0  0  0  0  0  0  0  0
   23.6464   17.4386    5.3990 H   0  0  0  0  0  0  0  0  0  0  0  0
   22.6506   18.9336    5.3990 H   0  0  0  0  0  0  0  0  0  0  0  0
   18.0809   18.0447    4.2804 H   0  0  0  0  0  0  0  0  0  0  0  0
   17.6678   16.2633    4.2336 H   0  0  0  0  0  0  0  0  0  0  0  0
   16.6399   15.8582    7.6386 H   0  0  0  0  0  0  0  0  0  0  0  0
   15.6383   15.8659    6.1475 H   0  0  0  0  0  0  0  0  0  0  0  0
   17.2427   15.0581    6.1475 H   0  0  0  0  0  0  0  0  0  0  0  0
   16.5343   17.9651    5.9564 H   0  0  0  0  0  0  0  0  0  0  0  0
   18.0269   17.5003    6.8985 H   0  0  0  0  0  0  0  0  0  0  0  0
   18.3326   12.5948    2.0327 H   0  0  0  0  0  0  0  0  0  0  0  0
   18.3528   12.0681    3.7430 H   0  0  0  0  0  0  0  0  0  0  0  0
   16.5766   15.4977    3.4316 H   0  0  0  0  0  0  0  0  0  0  0  0
   13.9185   15.0109    3.5394 H   0  0  0  0  0  0  0  0  0  0  0  0
   13.3181   11.4875    2.4352 H   0  0  0  0  0  0  0  0  0  0  0  0
   13.2515   11.6389    4.2435 H   0  0  0  0  0  0  0  0  0  0  0  0
   11.7695   13.3655    4.1894 H   0  0  0  0  0  0  0  0  0  0  0  0
   12.4021   14.0126    2.6377 H   0  0  0  0  0  0  0  0  0  0  0  0
   11.3129   12.5842    2.6377 H   0  0  0  0  0  0  0  0  0  0  0  0
  2  1  1  0
  4  3  1  0
  5  4  2  0
  6  5  1  0
  7  6  2  0
  7  2  1  0
  7  3  1  0
  8  5  1  0
  9  3  1  0
 11 10  1  0
 11  9  1  0
 12  1  1  0
 13 12  1  0
 14 13  1  0
 15 14  2  0
 16 15  1  0
 17 16  1  0
 17 13  2  0
 18 16  1  0
 19 18  1  0
  1 20  1  0
  1 21  1  0
  2 22  1  0
  2 23  1  0
  6 24  1  0
  8 25  1  0
  8 26  1  0
  8 27  1  0
  9 28  1  0
  9 29  1  0
 10 30  1  0
 10 31  1  0
 10 32  1  0
 11 33  1  0
 11 34  1  0
 12 35  1  0
 12 36  1  0
 14 37  1  0
 15 38  1  0
 18 39  1  0
 18 40  1  0
 19 41  1  0
 19 42  1  0
 19 43  1  0
M  CHG  1   1   1
M  END
$$$$
=
     RDKit          3D

 27 27  0  0  0  0  0  0  0  0999 V2000
   18.1410   15.4840    4.7690 C   0  0  0  0  0  0  0  0  0  0  0  0
   17.2620   16.2960    5.4920 C   0  0  0  0  0  0  0  0  0  0  0  0
   15.8830   16.1740    5.3160 C   0  0  0  0  0  0  0  0  0  0  0  0
   15.3510   15.2430    4.4140 C   0  0  0  0  0  0  0  0  0  0  0  0
   16.2250   14.4130    3.6870 C   0  0  0  0  0  0  0  0  0  0  0  0
   17.6130   14.5420    3.8720 C   0  0  0  0  0  0  0  0  0  0  0  0
   15.7000   13.3830    2.7220 C   0  0  0  0  0  0  0  0  0  0  0  0
   13.8570   15.1370    4.2610 C   0  0  0  0  0  0  0  0  0  0  0  0
   19.6280   15.6330    4.9350 C   0  0  2  0  0  0  0  0  0  0  0  0
   20.3520   15.0450    3.9270 F   0  0  0  0  0  0  0  0  0  0  0  0
   20.1160   14.9760    6.2340 C   0  0  0  0  0  0  0  0  0  0  0  0
   21.5220   15.4060    6.5210 N   0  0  0  0  0  4  0  0  0  0  0  0
   17.6595   17.0349    6.2033 H   0  0  0  0  0  0  0  0  0  0  0  0
   15.2038   16.8181    5.8938 H   0  0  0  0  0  0  0  0  0  0  0  0
   18.2967   13.8938    3.3042 H   0  0  0  0  0  0  0  0  0  0  0  0
   15.2704   12.5401    3.2832 H   0  0  0  0  0  0  0  0  0  0  0  0
   14.9229   13.8361    2.0889 H   0  0  0  0  0  0  0  0  0  0  0  0
   16.5233   13.0204    2.0889 H   0  0  0  0  0  0  0  0  0  0  0  0
   13.3880   15.1037    5.2555 H   0  0  0  0  0  0  0  0  0  0  0  0
   13.4821   16.0108    3.7079 H   0  0  0  0  0  0  0  0  0  0  0  0
   13.6093   14.2190    3.7079 H   0  0  0  0  0  0  0  0  0  0  0  0
   19.7919   16.7207    4.9331 H   0  0  0  0  0  0  0  0  0  0  0  0
   19.4636   15.2811    7.0654 H   0  0  0  0  0  0  0  0  0  0  0  0
   20.0856   13.8821    6.1223 H   0  0  0  0  0  0  0  0  0  0  0  0
   21.6663   15.4501    7.5399 H   0  0  0  0  0  0  0  0  0  0  0  0
   22.1792   14.7275    6.1102 H   0  0  0  0  0  0  0  0  0  0  0  0
   21.6872   16.3360    6.1102 H   0  0  0  0  0  0  0  0  0  0  0  0
  2  1  2  0
  3  2  1  0
  4  3  2  0
  5  4  1  0
  6  5  2  0
  6  1  1  0
  7  5  1  0
  8  4  1  0
  9  1  1  0
 10  9  1  0
 11  9  1  0
 12 11  1  0
  2 13  1  0
  3 14  1  0
  6 15  1  0
  7 16  1  0
  7 17  1  0
  7 18  1  0
  8 19  1  0
  8 20  1  0
  8 21  1  0
  9 22  1  1
 11 23  1  0
 11 24  1  0
 12 25  1  0
 12 26  1  0
 12 27  1  0
M  CHG  1  12   1
M  END
$$$$
=
     RDKit          3D

 19 19  0  0  0  0  0  0  0  0999 V2000
   21.2610   16.3220    5.5310 C   0  0  0  0  0  0  0  0  0  0  0  0
   22.3200   16.9100    6.2220 C   0  0  0  0  0  0  0  0  0  0  0  0
   22.9830   18.0260    5.8320 N   0  0  0  0  0  0  0  0  0  0  0  0
   22.5570   18.6270    4.7060 C   0  0  0  0  0  0  0  0  0  0  0  0
   21.4780   18.1820    3.9710 C   0  0  0  0  0  0  0  0  0  0  0  0
   20.8090   17.0370    4.4180 C   0  0  0  0  0  0  0  0  0  0  0  0
   19.3850   16.4950    3.5100 S   0  0  0  0  0  6  0  0  0  0  0  0
   18.2080   16.8980    4.2600 O   0  0  0  0  0  0  0  0  0  0  0  0
   19.5900   15.1020    3.1570 O   0  0  0  0  0  0  0  0  0  0  0  0
   19.4560   17.4510    2.0170 C   0  0  0  0  0  0  0  0  0  0  0  0
   20.5760   15.2260    6.0790 N   0  0  0  0  0  0  0  0  0  0  0  0
   22.6428   16.4301    7.1577 H   0  0  0  0  0  0  0  0  0  0  0  0
   23.0966   19.5185    4.3538 H   0  0  0  0  0  0  0  0  0  0  0  0
   21.1537   18.7103    3.0623 H   0  0  0  0  0  0  0  0  0  0  0  0
   19.5353   18.5189    2.2688 H   0  0  0  0  0  0  0  0  0  0  0  0
   20.3340   17.1469    1.4283 H   0  0  0  0  0  0  0  0  0  0  0  0
   18.5427   17.2799    1.4283 H   0  0  0  0  0  0  0  0  0  0  0  0
   19.7947   14.7967    5.5630 H   0  0  0  0  0  0  0  0  0  0  0  0
   20.8547   14.8512    6.9970 H   0  0  0  0  0  0  0  0  0  0  0  0
  2  1  2  0
  3  2  1  0
  4  3  2  0
  5  4  1  0
  6  1  1  0
  6  5  2  0
  7  6  1  0
  8  7  2  0
  9  7  2  0
 10  7  1  0
 11  1  1  0
  2 12  1  0
  4 13  1  0
  5 14  1  0
 10 15  1  0
 10 16  1  0
 10 17  1  0
 11 18  1  0
 11 19  1  0
M  END
$$$$
=
     RDKit          3D

 36 37  0  0  0  0  0  0  0  0999 V2000
   28.7690   25.1410   16.1050 S   0  0  0  0  0  6  0  0  0  0  0  0
   29.9920   24.8000   16.7980 O   0  0  0  0  0  0  0  0  0  0  0  0
   27.4730   24.7850   16.6370 O   0  0  0  0  0  0  0  0  0  0  0  0
   28.2170   24.8690   13.3480 C   0  0  0  0  0  0  0  0  0  0  0  0
   28.5030   23.9010   12.3950 C   0  0  0  0  0  0  0  0  0  0  0  0
   28.0620   23.7460   10.9860 C   0  0  0  0  0  0  0  0  0  0  0  0
   29.3350   23.0030   13.0000 N   0  0  0  0  0  0  0  0  0  0  0  0
   29.6720   23.3480   14.2540 N   0  0  0  0  0  0  0  0  0  0  0  0
   28.8770   24.4070   14.5150 C   0  0  0  0  0  0  0  0  0  0  0  0
   27.4060   26.0500   13.1440 C   0  0  0  0  0  0  0  0  0  0  0  0
   27.8630   27.1230   12.7740 O   0  0  0  0  0  0  0  0  0  0  0  0
   25.1840   25.9660   12.4350 C   0  0  0  0  0  0  0  0  0  0  0  0
   26.1070   25.8530   13.5200 O   0  0  0  0  0  0  0  0  0  0  0  0
   28.7920   26.8500   15.8950 N   0  0  0  0  0  0  0  0  0  0  0  0
   28.2690   27.5950   17.0850 C   0  0  0  0  0  0  0  0  0  0  0  0
   29.1410   28.8520   17.1830 C   0  0  0  0  0  0  0  0  0  0  0  0
   29.9090   28.8940   15.8700 C   0  0  1  0  0  0  0  0  0  0  0  0
   30.1420   27.4080   15.5910 C   0  0  0  0  0  0  0  0  0  0  0  0
   29.0100   29.4450   14.8020 N   0  0  0  0  0  4  0  0  0  0  0  0
   27.0244   23.3813   10.9645 H   0  0  0  0  0  0  0  0  0  0  0  0
   28.1196   24.7182   10.4747 H   0  0  0  0  0  0  0  0  0  0  0  0
   28.7152   23.0236   10.4747 H   0  0  0  0  0  0  0  0  0  0  0  0
   29.6713   22.1450   12.5400 H   0  0  0  0  0  0  0  0  0  0  0  0
   24.1655   26.0907   12.8315 H   0  0  0  0  0  0  0  0  0  0  0  0
   25.4471   26.8386   11.8191 H   0  0  0  0  0  0  0  0  0  0  0  0
   25.2288   25.0557   11.8191 H   0  0  0  0  0  0  0  0  0  0  0  0
   27.2136   27.8675   16.9369 H   0  0  0  0  0  0  0  0  0  0  0  0
   28.3130   26.9899   18.0025 H   0  0  0  0  0  0  0  0  0  0  0  0
   28.5156   29.7499   17.2953 H   0  0  0  0  0  0  0  0  0  0  0  0
   29.8103   28.8267   18.0555 H   0  0  0  0  0  0  0  0  0  0  0  0
   30.8250   29.5023   15.9000 H   0  0  0  0  0  0  0  0  0  0  0  0
   30.9123   26.9877   16.2544 H   0  0  0  0  0  0  0  0  0  0  0  0
   30.5077   27.1874   14.5773 H   0  0  0  0  0  0  0  0  0  0  0  0
   28.2152   29.9322   15.2399 H   0  0  0  0  0  0  0  0  0  0  0  0
   29.5384   30.1075   14.2165 H   0  0  0  0  0  0  0  0  0  0  0  0
   28.6595   28.6735   14.2165 H   0  0  0  0  0  0  0  0  0  0  0  0
  2  1  2  0
  3  1  2  0
  5  4  2  0
  6  5  1  0
  7  5  1  0
  8  7  1  0
  9  8  2  0
  9  4  1  0
  9  1  1  0
 10  4  1  0
 11 10  2  0
 13 12  1  0
 13 10  1  0
 14  1  1  0
 15 14  1  0
 16 15  1  0
 17 16  1  0
 18 14  1  0
 18 17  1  0
 19 17  1  0
  6 20  1  0
  6 21  1  0
  6 22  1  0
  7 23  1  0
 12 24  1  0
 12 25  1  0
 12 26  1  0
 15 27  1  0
 15 28  1  0
 16 29  1  0
 16 30  1  0
 17 31  1  1
 18 32  1  0
 18 33  1  0
 19 34  1  0
 19 35  1  0
 19 36  1  0
M  CHG  1  19   1
M  END
$$$$
=
     RDKit          3D

 26 27  0  0  0  0  0  0  0  0999 V2000
   19.2240   14.6290    3.5480 O   0  0  0  0  0  0  0  0  0  0  0  0
   18.3420   15.1040    4.2390 C   0  0  0  0  0  0  0  0  0  0  0  0
   17.0350   15.2940    3.8430 N   0  0  0  0  0  0  0  0  0  0  0  0
   16.2270   15.9300    4.8380 C   0  0  0  0  0  0  0  0  0  0  0  0
   17.0510   15.8050    6.1100 C   0  0  0  0  0  0  0  0  0  0  0  0
   18.5140   15.7460    5.6260 C   0  0  1  0  0  0  0  0  0  0  0  0
   19.4090   14.9580    6.5840 C   0  0  0  0  0  0  0  0  0  0  0  0
   20.8980   15.0570    6.2550 C   0  0  0  0  0  0  0  0  0  0  0  0
   21.3460   16.5040    6.0890 C   0  0  0  0  0  0  0  0  0  0  0  0
   20.4890   17.2420    5.0780 C   0  0  0  0  0  0  0  0  0  0  0  0
   19.0530   17.1670    5.5010 N   0  0  0  0  0  4  0  0  0  0  0  0
   16.6756   15.0064    2.9216 H   0  0  0  0  0  0  0  0  0  0  0  0
   16.0541   16.9866    4.5855 H   0  0  0  0  0  0  0  0  0  0  0  0
   15.2301   15.4744    4.9309 H   0  0  0  0  0  0  0  0  0  0  0  0
   16.8931   16.6771    6.7615 H   0  0  0  0  0  0  0  0  0  0  0  0
   16.7725   14.9197    6.7004 H   0  0  0  0  0  0  0  0  0  0  0  0
   19.2519   15.3434    7.6022 H   0  0  0  0  0  0  0  0  0  0  0  0
   19.1283   13.8987    6.4883 H   0  0  0  0  0  0  0  0  0  0  0  0
   21.4743   14.5973    7.0714 H   0  0  0  0  0  0  0  0  0  0  0  0
   21.0734   14.5335    5.3036 H   0  0  0  0  0  0  0  0  0  0  0  0
   21.2712   17.0144    7.0605 H   0  0  0  0  0  0  0  0  0  0  0  0
   22.3838   16.5029    5.7244 H   0  0  0  0  0  0  0  0  0  0  0  0
   20.8033   18.2950    5.0281 H   0  0  0  0  0  0  0  0  0  0  0  0
   20.6068   16.7803    4.0866 H   0  0  0  0  0  0  0  0  0  0  0  0
   18.4840   17.6686    4.8042 H   0  0  0  0  0  0  0  0  0  0  0  0
   18.9972   17.5893    6.4388 H   0  0  0  0  0  0  0  0  0  0  0  0
  2  1  2  0
  3  2  1  0
  4  3  1  0
  5  4  1  0
  6  2  1  6
  6  5  1  0
  7  6  1  0
  8  7  1  0
  9  8  1  0
 10  9  1  0
 11  6  1  0
 11 10  1  0
  3 12  1  0
  4 13  1  0
  4 14  1  0
  5 15  1  0
  5 16  1  0
  7 17  1  0
  7 18  1  0
  8 19  1  0
  8 20  1  0
  9 21  1  0
  9 22  1  0
 10 23  1  0
 10 24  1  0
 11 25  1  0
 11 26  1  0
M  CHG  1  11   1
M  END
$$$$
=
     RDKit          3D

 37 38  0  0  0  0  0  0  0  0999 V2000
   17.0050   15.4000    4.5530 C   0  0  0  0  0  0  0  0  0  0  0  0
   16.7810   14.4760    3.5230 C   0  0  0  0  0  0  0  0  0  0  0  0
   15.5540   13.8120    3.3920 C   0  0  0  0  0  0  0  0  0  0  0  0
   14.5030   14.0540    4.2860 C   0  0  0  0  0  0  0  0  0  0  0  0
   14.7190   14.9720    5.3210 C   0  0  0  0  0  0  0  0  0  0  0  0
   15.9460   15.6320    5.4470 C   0  0  0  0  0  0  0  0  0  0  0  0
   13.2130   13.2970    4.1430 C   0  0  2  0  0  0  0  0  0  0  0  0
   12.8790   12.7630    2.7490 C   0  0  0  0  0  0  0  0  0  0  0  0
   11.3700   12.6060    2.8030 C   0  0  0  0  0  0  0  0  0  0  0  0
   10.9190   13.8620    3.5230 C   0  0  0  0  0  0  0  0  0  0  0  0
   12.0200   14.1500    4.4940 N   0  0  0  0  0  4  0  0  0  0  0  0
   18.9780   16.6000    3.3860 C   0  0  0  0  0  0  0  0  0  0  0  0
   18.3400   16.1520    4.7200 C   0  0  0  0  0  0  0  0  0  0  0  0
   19.3630   15.2390    5.4310 C   0  0  0  0  0  0  0  0  0  0  0  0
   18.1160   17.4220    5.5690 C   0  0  0  0  0  0  0  0  0  0  0  0
   17.5855   14.2677    2.8023 H   0  0  0  0  0  0  0  0  0  0  0  0
   15.4139   13.0895    2.5745 H   0  0  0  0  0  0  0  0  0  0  0  0
   13.9148   15.1765    6.0431 H   0  0  0  0  0  0  0  0  0  0  0  0
   16.0855   16.3514    6.2674 H   0  0  0  0  0  0  0  0  0  0  0  0
   13.3898   12.4533    4.8263 H   0  0  0  0  0  0  0  0  0  0  0  0
   13.1754   13.4793    1.9686 H   0  0  0  0  0  0  0  0  0  0  0  0
   13.4059   11.8295    2.5019 H   0  0  0  0  0  0  0  0  0  0  0  0
   10.9418   12.5556    1.7910 H   0  0  0  0  0  0  0  0  0  0  0  0
   11.0492   11.6812    3.3048 H   0  0  0  0  0  0  0  0  0  0  0  0
   10.7974   14.6945    2.8143 H   0  0  0  0  0  0  0  0  0  0  0  0
    9.9454   13.7343    4.0188 H   0  0  0  0  0  0  0  0  0  0  0  0
   12.2782   15.1456    4.4393 H   0  0  0  0  0  0  0  0  0  0  0  0
   11.7067   13.9365    5.4517 H   0  0  0  0  0  0  0  0  0  0  0  0
   19.8622   17.2209    3.5927 H   0  0  0  0  0  0  0  0  0  0  0  0
   19.2791   15.7140    2.8078 H   0  0  0  0  0  0  0  0  0  0  0  0
   18.2469   17.1841    2.8078 H   0  0  0  0  0  0  0  0  0  0  0  0
   19.2497   15.3401    6.5205 H   0  0  0  0  0  0  0  0  0  0  0  0
   19.1859   14.1932    5.1395 H   0  0  0  0  0  0  0  0  0  0  0  0
   20.3820   15.5334    5.1395 H   0  0  0  0  0  0  0  0  0  0  0  0
   18.1619   17.1620    6.6368 H   0  0  0  0  0  0  0  0  0  0  0  0
   18.8978   18.1604    5.3375 H   0  0  0  0  0  0  0  0  0  0  0  0
   17.1288   17.8484    5.3375 H   0  0  0  0  0  0  0  0  0  0  0  0
  2  1  2  0
  3  2  1  0
  4  3  2  0
  5  4  1  0
  6  5  2  0
  6  1  1  0
  7  4  1  0
  8  7  1  0
  9  8  1  0
 10  9  1  0
 11 10  1  0
 11  7  1  0
 13  1  1  0
 13 12  1  0
 14 13  1  0
 15 13  1  0
  2 16  1  0
  3 17  1  0
  5 18  1  0
  6 19  1  0
  7 20  1  1
  8 21  1  0
  8 22  1  0
  9 23  1  0
  9 24  1  0
 10 25  1  0
 10 26  1  0
 11 27  1  0
 11 28  1  0
 12 29  1  0
 12 30  1  0
 12 31  1  0
 14 32  1  0
 14 33  1  0
 14 34  1  0
 15 35  1  0
 15 36  1  0
 15 37  1  0
M  CHG  1  11   1
M  END
$$$$
=
     RDKit          3D

 41 42  0  0  0  0  0  0  0  0999 V2000
   15.1300   14.4670    4.1440 C   0  0  0  0  0  0  0  0  0  0  0  0
   14.0030   13.6290    4.1030 C   0  0  0  0  0  0  0  0  0  0  0  0
   14.0090   12.4790    3.3140 C   0  0  0  0  0  0  0  0  0  0  0  0
   15.1390   12.1530    2.5670 C   0  0  0  0  0  0  0  0  0  0  0  0
   16.2640   12.9800    2.6000 C   0  0  0  0  0  0  0  0  0  0  0  0
   16.2580   14.1490    3.3700 C   0  0  0  0  0  0  0  0  0  0  0  0
   15.1010   15.7050    4.9640 C   0  0  0  0  0  0  0  0  0  0  0  0
   14.8320   16.8170    4.5330 O   0  0  0  0  0  0  0  0  0  0  0  0
   15.4300   15.4000    6.2430 O   0  0  0  0  0  0  0  0  0  0  0  0
   17.1430   17.1100    6.2100 C   0  0  0  0  0  0  0  0  0  0  0  0
   16.7730   15.7050    6.6460 C   0  0  0  0  0  0  0  0  0  0  0  0
   17.3780   14.9360    3.4570 O   0  0  0  0  0  0  0  0  0  0  0  0
   18.5740   14.1930    3.7070 C   0  0  0  0  0  0  0  0  0  0  0  0
   19.7070   15.2000    3.9450 C   0  0  1  0  0  0  0  0  0  0  0  0
   19.3180   16.6110    3.5030 C   0  0  0  0  0  0  0  0  0  0  0  0
   20.4810   17.5970    3.6670 C   0  0  0  0  0  0  0  0  0  0  0  0
   21.5200   17.1570    4.6900 C   0  0  0  0  0  0  0  0  0  0  0  0
   20.8380   16.4500    5.8040 N   0  0  0  0  0  4  0  0  0  0  0  0
   20.1490   15.1750    5.4150 C   0  0  0  0  0  0  0  0  0  0  0  0
   13.1116   13.8812    4.6961 H   0  0  0  0  0  0  0  0  0  0  0  0
   13.1218   11.8295    3.2815 H   0  0  0  0  0  0  0  0  0  0  0  0
   15.1451   11.2424    1.9500 H   0  0  0  0  0  0  0  0  0  0  0  0
   17.1584   12.7116    2.0186 H   0  0  0  0  0  0  0  0  0  0  0  0
   17.3083   17.7379    7.0979 H   0  0  0  0  0  0  0  0  0  0  0  0
   18.0630   17.0768    5.6079 H   0  0  0  0  0  0  0  0  0  0  0  0
   16.3259   17.5342    5.6079 H   0  0  0  0  0  0  0  0  0  0  0  0
   16.8495   15.6321    7.7409 H   0  0  0  0  0  0  0  0  0  0  0  0
   17.4615   14.9889    6.1736 H   0  0  0  0  0  0  0  0  0  0  0  0
   18.4426   13.5596    4.5967 H   0  0  0  0  0  0  0  0  0  0  0  0
   18.8097   13.5426    2.8517 H   0  0  0  0  0  0  0  0  0  0  0  0
   20.5617   14.8965    3.3226 H   0  0  0  0  0  0  0  0  0  0  0  0
   19.0202   16.5837    2.4444 H   0  0  0  0  0  0  0  0  0  0  0  0
   18.4867   16.9523    4.1374 H   0  0  0  0  0  0  0  0  0  0  0  0
   20.9795   17.7104    2.6930 H   0  0  0  0  0  0  0  0  0  0  0  0
   20.0514   18.5414    4.0324 H   0  0  0  0  0  0  0  0  0  0  0  0
   22.2433   16.4798    4.2122 H   0  0  0  0  0  0  0  0  0  0  0  0
   22.0508   18.0377    5.0806 H   0  0  0  0  0  0  0  0  0  0  0  0
   21.5432   16.2268    6.5208 H   0  0  0  0  0  0  0  0  0  0  0  0
   20.1009   17.0855    6.1414 H   0  0  0  0  0  0  0  0  0  0  0  0
   19.2629   15.0387    6.0524 H   0  0  0  0  0  0  0  0  0  0  0  0
   20.8585   14.3449    5.5479 H   0  0  0  0  0  0  0  0  0  0  0  0
  2  1  2  0
  3  2  1  0
  4  3  2  0
  5  4  1  0
  6  5  2  0
  6  1  1  0
  7  1  1  0
  8  7  2  0
  9  7  1  0
 11  9  1  0
 11 10  1  0
 12  6  1  0
 13 12  1  0
 14 13  1  0
 15 14  1  0
 16 15  1  0
 17 16  1  0
 18 17  1  0
 19 14  1  0
 19 18  1  0
  2 20  1  0
  3 21  1  0
  4 22  1  0
  5 23  1  0
 10 24  1  0
 10 25  1  0
 10 26  1  0
 11 27  1  0
 11 28  1  0
 13 29  1  0
 13 30  1  0
 14 31  1  6
 15 32  1  0
 15 33  1  0
 16 34  1  0
 16 35  1  0
 17 36  1  0
 17 37  1  0
 18 38  1  0
 18 39  1  0
 19 40  1  0
 19 41  1  0
M  CHG  1  18   1
M  END
$$$$
=
     RDKit          3D

 43 45  0  0  0  0  0  0  0  0999 V2000
   17.8740   16.7240    4.8910 C   0  0  0  0  0  0  0  0  0  0  0  0
   19.0920   15.9720    4.5250 N   0  0  0  0  0  0  0  0  0  0  0  0
   19.2030   14.6260    5.1280 C   0  0  0  0  0  0  0  0  0  0  0  0
   19.6250   14.6990    6.5840 C   0  0  0  0  0  0  0  0  0  0  0  0
   21.0310   15.2690    6.6590 C   0  0  0  0  0  0  0  0  0  0  0  0
   21.2070   16.4500    5.7400 C   0  0  0  0  0  0  0  0  0  0  0  0
   20.2730   16.7460    4.7220 C   0  0  0  0  0  0  0  0  0  0  0  0
   20.5410   17.8450    3.8890 C   0  0  0  0  0  0  0  0  0  0  0  0
   21.6830   18.6330    4.0600 C   0  0  0  0  0  0  0  0  0  0  0  0
   22.5900   18.3330    5.0680 C   0  0  0  0  0  0  0  0  0  0  0  0
   22.3570   17.2430    5.9000 C   0  0  0  0  0  0  0  0  0  0  0  0
   16.7450   15.8120    5.3990 C   0  0  0  0  0  0  0  0  0  0  0  0
   14.2290   13.0460    3.3620 C   0  0  0  0  0  0  0  0  0  0  0  0
   13.5070   14.1230    4.1640 C   0  0  0  0  0  0  0  0  0  0  0  0
   14.4350   14.8250    5.1460 C   0  0  0  0  0  0  0  0  0  0  0  0
   15.5930   15.5300    4.4090 C   0  0  2  0  0  0  0  0  0  0  0  0
   16.0340   14.7750    3.1490 C   0  0  0  0  0  0  0  0  0  0  0  0
   15.6950   13.3270    3.2810 N   0  0  0  0  0  4  0  0  0  0  0  0
   18.1290   17.4433    5.6832 H   0  0  0  0  0  0  0  0  0  0  0  0
   17.5105   17.2301    3.9845 H   0  0  0  0  0  0  0  0  0  0  0  0
   18.2260   14.1246    5.0642 H   0  0  0  0  0  0  0  0  0  0  0  0
   19.9700   14.0637    4.5753 H   0  0  0  0  0  0  0  0  0  0  0  0
   18.9323   15.3501    7.1373 H   0  0  0  0  0  0  0  0  0  0  0  0
   19.6055   13.6933    7.0293 H   0  0  0  0  0  0  0  0  0  0  0  0
   21.2305   15.5893    7.6923 H   0  0  0  0  0  0  0  0  0  0  0  0
   21.7348   14.4841    6.3449 H   0  0  0  0  0  0  0  0  0  0  0  0
   19.8349   18.0916    3.0824 H   0  0  0  0  0  0  0  0  0  0  0  0
   21.8633   19.4911    3.3958 H   0  0  0  0  0  0  0  0  0  0  0  0
   23.4873   18.9537    5.2076 H   0  0  0  0  0  0  0  0  0  0  0  0
   23.0804   16.9987    6.6919 H   0  0  0  0  0  0  0  0  0  0  0  0
   17.1933   14.8462    5.6750 H   0  0  0  0  0  0  0  0  0  0  0  0
   16.2842   16.3558    6.2369 H   0  0  0  0  0  0  0  0  0  0  0  0
   14.0764   12.0719    3.8498 H   0  0  0  0  0  0  0  0  0  0  0  0
   13.8183   13.0361    2.3416 H   0  0  0  0  0  0  0  0  0  0  0  0
   13.0977   14.8694    3.4673 H   0  0  0  0  0  0  0  0  0  0  0  0
   12.7079   13.6361    4.7422 H   0  0  0  0  0  0  0  0  0  0  0  0
   13.8602   15.5735    5.7111 H   0  0  0  0  0  0  0  0  0  0  0  0
   14.8604   14.0711    5.8247 H   0  0  0  0  0  0  0  0  0  0  0  0
   15.2352   16.5000    4.0334 H   0  0  0  0  0  0  0  0  0  0  0  0
   15.5160   15.1927    2.2731 H   0  0  0  0  0  0  0  0  0  0  0  0
   17.1215   14.8829    3.0235 H   0  0  0  0  0  0  0  0  0  0  0  0
   16.0744   12.8305    2.4622 H   0  0  0  0  0  0  0  0  0  0  0  0
   16.1075   13.0061    4.1686 H   0  0  0  0  0  0  0  0  0  0  0  0
  2  1  1  0
  3  2  1  0
  4  3  1  0
  5  4  1  0
  6  5  1  0
  7  2  1  0
  7  6  2  0
  8  7  1  0
  9  8  2  0
 10  9  1  0
 11  6  1  0
 11 10  2  0
 12  1  1  0
 14 13  1  0
 15 14  1  0
 16 15  1  0
 16 12  1  0
 17 16  1  0
 18 17  1  0
 18 13  1  0
  1 19  1  0
  1 20  1  0
  3 21  1  0
  3 22  1  0
  4 23  1  0
  4 24  1  0
  5 25  1  0
  5 26  1  0
  8 27  1  0
  9 28  1  0
 10 29  1  0
 11 30  1  0
 12 31  1  0
 12 32  1  0
 13 33  1  0
 13 34  1  0
 14 35  1  0
 14 36  1  0
 15 37  1  0
 15 38  1  0
 16 39  1  6
 17 40  1  0
 17 41  1  0
 18 42  1  0
 18 43  1  0
M  CHG  1  18   1
M  END
$$$$
=
     RDKit          3D

 38 39  0  0  0  0  0  0  0  0999 V2000
   17.2990   16.4580    6.0030 C   0  0  0  0  0  0  0  0  0  0  0  0
   15.5300   15.1020    6.8660 O   0  0  0  0  0  0  0  0  0  0  0  0
   16.1190   15.5040    5.8660 C   0  0  0  0  0  0  0  0  0  0  0  0
   15.7770   15.2370    4.5490 N   0  0  0  0  0  0  0  0  0  0  0  0
   14.7040   14.4610    4.0580 C   0  0  0  0  0  0  0  0  0  0  0  0
   13.3670   14.7750    4.3230 C   0  0  0  0  0  0  0  0  0  0  0  0
   12.3270   13.9890    3.8170 C   0  0  0  0  0  0  0  0  0  0  0  0
   12.6010   12.8640    3.0400 C   0  0  0  0  0  0  0  0  0  0  0  0
   13.9330   12.5530    2.7540 C   0  0  0  0  0  0  0  0  0  0  0  0
   14.9920   13.3350    3.2560 C   0  0  0  0  0  0  0  0  0  0  0  0
   16.4000   12.9280    2.9130 C   0  0  0  0  0  0  0  0  0  0  0  0
   11.4850   12.0400    2.4700 C   0  0  0  0  0  0  0  0  0  0  0  0
   18.8720   15.5500    6.1430 S   0  0  0  0  0  0  0  0  0  0  0  0
   19.9040   16.5970    5.1480 C   0  0  0  0  0  0  0  0  0  0  0  0
   19.5660   16.7070    3.8560 N   0  0  0  0  0  0  0  0  0  0  0  0
   20.3360   17.4960    3.1060 C   0  0  0  0  0  0  0  0  0  0  0  0
   21.4130   18.1870    3.6130 C   0  0  0  0  0  0  0  0  0  0  0  0
   21.6750   18.0170    4.9540 C   0  0  0  0  0  0  0  0  0  0  0  0
   20.9330   17.2260    5.7310 N   0  0  0  0  0  0  0  0  0  0  0  0
   22.7460   18.6880    5.5560 N   0  0  0  0  0  0  0  0  0  0  0  0
   19.9770   17.6300    1.7650 N   0  0  0  0  0  0  0  0  0  0  0  0
   17.3385   17.1085    5.1169 H   0  0  0  0  0  0  0  0  0  0  0  0
   17.1595   17.0535    6.9173 H   0  0  0  0  0  0  0  0  0  0  0  0
   16.3860   15.6606    3.8344 H   0  0  0  0  0  0  0  0  0  0  0  0
   13.1298   15.6546    4.9395 H   0  0  0  0  0  0  0  0  0  0  0  0
   11.2834   14.2606    4.0339 H   0  0  0  0  0  0  0  0  0  0  0  0
   14.1593   11.6800    2.1242 H   0  0  0  0  0  0  0  0  0  0  0  0
   16.9700   12.7632    3.8393 H   0  0  0  0  0  0  0  0  0  0  0  0
   16.3801   11.9988    2.3245 H   0  0  0  0  0  0  0  0  0  0  0  0
   16.8789   13.7245    2.3245 H   0  0  0  0  0  0  0  0  0  0  0  0
   10.8951   11.6044    3.2899 H   0  0  0  0  0  0  0  0  0  0  0  0
   10.8372   12.6781    1.8510 H   0  0  0  0  0  0  0  0  0  0  0  0
   11.9042   11.2331    1.8510 H   0  0  0  0  0  0  0  0  0  0  0  0
   22.0317   18.8405    2.9804 H   0  0  0  0  0  0  0  0  0  0  0  0
   22.9372   18.5569    6.5596 H   0  0  0  0  0  0  0  0  0  0  0  0
   23.3428   19.3128    4.9954 H   0  0  0  0  0  0  0  0  0  0  0  0
   20.5363   18.2271    1.1393 H   0  0  0  0  0  0  0  0  0  0  0  0
   19.1525   17.1318    1.4003 H   0  0  0  0  0  0  0  0  0  0  0  0
  3  2  2  0
  3  1  1  0
  4  3  1  0
  5  4  1  0
  6  5  2  0
  7  6  1  0
  8  7  2  0
  9  8  1  0
 10  9  2  0
 10  5  1  0
 11 10  1  0
 12  8  1  0
 13  1  1  0
 14 13  1  0
 15 14  2  0
 16 15  1  0
 17 16  2  0
 18 17  1  0
 19 18  2  0
 19 14  1  0
 20 18  1  0
 21 16  1  0
  1 22  1  0
  1 23  1  0
  4 24  1  0
  6 25  1  0
  7 26  1  0
  9 27  1  0
 11 28  1  0
 11 29  1  0
 11 30  1  0
 12 31  1  0
 12 32  1  0
 12 33  1  0
 17 34  1  0
 20 35  1  0
 20 36  1  0
 21 37  1  0
 21 38  1  0
M  END
$$$$
=
     RDKit          3D

 37 38  0  0  0  0  0  0  0  0999 V2000
   26.7640   27.0250   16.1950 C   0  0  1  0  0  0  0  0  0  0  0  0
   27.1150   26.0730   15.1800 O   0  0  0  0  0  0  0  0  0  0  0  0
   28.5090   25.7210   15.2070 C   0  0  2  0  0  0  0  0  0  0  0  0
   29.3660   26.9740   14.9180 C   0  0  1  0  0  0  0  0  0  0  0  0
   29.0190   28.0800   15.9160 C   0  0  2  0  0  0  0  0  0  0  0  0
   27.5130   28.3430   15.9720 C   0  0  2  0  0  0  0  0  0  0  0  0
   27.2490   29.3030   16.9990 O   0  0  0  0  0  0  0  0  0  0  0  0
   29.7180   29.2820   15.5480 O   0  0  0  0  0  0  0  0  0  0  0  0
   30.7710   26.6980   15.0260 O   0  0  0  0  0  0  0  0  0  0  0  0
   25.2460   27.2270   16.1240 C   0  0  0  0  0  0  0  0  0  0  0  0
   24.7870   27.7980   17.3500 O   0  0  0  0  0  0  0  0  0  0  0  0
   28.8150   24.7410   14.2040 O   0  0  0  0  0  0  0  0  0  0  0  0
   27.8740   24.6210   13.1870 C   0  0  0  0  0  0  0  0  0  0  0  0
   26.8490   23.7460   13.3050 C   0  0  0  0  0  0  0  0  0  0  0  0
   25.8710   23.6010   12.3540 N   0  0  0  0  0  0  0  0  0  0  0  0
   25.9620   24.2810   11.2600 C   0  0  0  0  0  0  0  0  0  0  0  0
   26.9690   25.1520   11.0150 N   0  0  0  0  0  0  0  0  0  0  0  0
   27.9100   25.4550   11.9530 C   0  0  0  0  0  0  0  0  0  0  0  0
   28.7090   26.3690   11.7710 O   0  0  0  0  0  0  0  0  0  0  0  0
   25.0280   24.1450   10.2860 N   0  0  0  0  0  0  0  0  0  0  0  0
   26.7490   22.9560   14.4400 N   0  0  0  0  0  0  0  0  0  0  0  0
   27.0490   26.6603   17.1929 H   0  0  0  0  0  0  0  0  0  0  0  0
   28.7310   25.3105   16.2031 H   0  0  0  0  0  0  0  0  0  0  0  0
   29.1441   27.2893   13.8878 H   0  0  0  0  0  0  0  0  0  0  0  0
   29.3314   27.7527   16.9186 H   0  0  0  0  0  0  0  0  0  0  0  0
   27.1545   28.7590   15.0189 H   0  0  0  0  0  0  0  0  0  0  0  0
   27.3658   28.8783   17.8856 H   0  0  0  0  0  0  0  0  0  0  0  0
   29.9984   29.7642   16.3659 H   0  0  0  0  0  0  0  0  0  0  0  0
   31.0250   26.6481   15.9816 H   0  0  0  0  0  0  0  0  0  0  0  0
   25.0040   27.9031   15.2907 H   0  0  0  0  0  0  0  0  0  0  0  0
   24.7528   26.2572   15.9623 H   0  0  0  0  0  0  0  0  0  0  0  0
   25.1829   27.3055   18.1121 H   0  0  0  0  0  0  0  0  0  0  0  0
   27.0258   25.6003   10.0894 H   0  0  0  0  0  0  0  0  0  0  0  0
   25.1077   24.6910    9.4162 H   0  0  0  0  0  0  0  0  0  0  0  0
   24.2390   23.4958   10.4161 H   0  0  0  0  0  0  0  0  0  0  0  0
   25.9709   22.2880   14.5356 H   0  0  0  0  0  0  0  0  0  0  0  0
   27.4529   23.0371   15.1876 H   0  0  0  0  0  0  0  0  0  0  0  0
  2  1  1  0
  3  2  1  0
  4  3  1  0
  5  4  1  0
  6  1  1  0
  6  5  1  0
  7  6  1  0
  8  5  1  0
  9  4  1  0
 10  1  1  0
 11 10  1  0
 12  3  1  0
 13 12  1  0
 14 13  2  0
 15 14  1  0
 16 15  2  0
 17 16  1  0
 18 17  1  0
 18 13  1  0
 19 18  2  0
 20 16  1  0
 21 14  1  0
  1 22  1  1
  3 23  1  1
  4 24  1  6
  5 25  1  1
  6 26  1  6
  7 27  1  0
  8 28  1  0
  9 29  1  0
 10 30  1  0
 10 31  1  0
 11 32  1  0
 17 33  1  0
 20 34  1  0
 20 35  1  0
 21 36  1  0
 21 37  1  0
M  END
$$$$
=
     RDKit          3D

 33 35  0  0  0  0  0  0  0  0999 V2000
   11.4850   14.5330    4.2870 F   0  0  0  0  0  0  0  0  0  0  0  0
   12.7390   14.1780    3.9850 C   0  0  0  0  0  0  0  0  0  0  0  0
   12.9590   12.9910    3.2700 C   0  0  0  0  0  0  0  0  0  0  0  0
   14.2590   12.5970    2.9430 C   0  0  0  0  0  0  0  0  0  0  0  0
   15.2900   13.4230    3.3530 C   0  0  0  0  0  0  0  0  0  0  0  0
   15.0780   14.6050    4.0640 C   0  0  0  0  0  0  0  0  0  0  0  0
   13.7930   14.9990    4.3910 C   0  0  0  0  0  0  0  0  0  0  0  0
   16.3800   15.2700    4.3600 C   0  0  0  0  0  0  0  0  0  0  0  0
   17.3510   14.3620    3.7460 N   0  0  0  0  0  0  0  0  0  0  0  0
   16.7340   13.2670    3.1600 C   0  0  0  0  0  0  0  0  0  0  0  0
   17.2860   12.3370    2.5980 O   0  0  0  0  0  0  0  0  0  0  0  0
   18.7930   14.6270    3.8210 C   0  0  0  0  0  0  0  0  0  0  0  0
   19.1650   15.9810    3.2070 C   0  0  0  0  0  0  0  0  0  0  0  0
   18.8330   17.1900    4.0740 C   0  0  0  0  0  0  0  0  0  0  0  0
   18.8290   16.8450    5.5190 N   0  0  0  0  0  4  0  0  0  0  0  0
   19.7630   15.7690    5.9110 C   0  0  0  0  0  0  0  0  0  0  0  0
   19.3510   14.4600    5.2470 C   0  0  0  0  0  0  0  0  0  0  0  0
   12.1048   12.3683    2.9658 H   0  0  0  0  0  0  0  0  0  0  0  0
   14.4541   11.6701    2.3837 H   0  0  0  0  0  0  0  0  0  0  0  0
   13.6078   15.9271    4.9516 H   0  0  0  0  0  0  0  0  0  0  0  0
   16.4278   16.2697    3.9036 H   0  0  0  0  0  0  0  0  0  0  0  0
   16.5530   15.4333    5.4340 H   0  0  0  0  0  0  0  0  0  0  0  0
   19.2819   13.8565    3.2067 H   0  0  0  0  0  0  0  0  0  0  0  0
   20.2483   15.9840    3.0163 H   0  0  0  0  0  0  0  0  0  0  0  0
   18.5625   16.0817    2.2922 H   0  0  0  0  0  0  0  0  0  0  0  0
   19.5847   17.9732    3.8965 H   0  0  0  0  0  0  0  0  0  0  0  0
   17.8265   17.5410    3.8023 H   0  0  0  0  0  0  0  0  0  0  0  0
   19.0778   17.6920    6.0496 H   0  0  0  0  0  0  0  0  0  0  0  0
   17.8836   16.4928    5.7264 H   0  0  0  0  0  0  0  0  0  0  0  0
   20.7815   16.0354    5.5921 H   0  0  0  0  0  0  0  0  0  0  0  0
   19.7369   15.6458    7.0038 H   0  0  0  0  0  0  0  0  0  0  0  0
   18.5763   13.9865    5.8679 H   0  0  0  0  0  0  0  0  0  0  0  0
   20.2605   13.8471    5.1622 H   0  0  0  0  0  0  0  0  0  0  0  0
  2  1  1  0
  3  2  2  0
  4  3  1  0
  5  4  2  0
  6  5  1  0
  7  6  2  0
  7  2  1  0
  8  6  1  0
  9  8  1  0
 10  5  1  0
 10  9  1  0
 11 10  2  0
 12  9  1  0
 13 12  1  0
 14 13  1  0
 15 14  1  0
 16 15  1  0
 17 12  1  0
 17 16  1  0
  3 18  1  0
  4 19  1  0
  7 20  1  0
  8 21  1  0
  8 22  1  0
 12 23  1  0
 13 24  1  0
 13 25  1  0
 14 26  1  0
 14 27  1  0
 15 28  1  0
 15 29  1  0
 16 30  1  0
 16 31  1  0
 17 32  1  0
 17 33  1  0
M  CHG  1  15   1
M  END
$$$$
=
     RDKit          3D

 27 27  0  0  0  0  0  0  0  0999 V2000
   22.0090   17.2460    4.8010 C   0  0  2  0  0  0  0  0  0  0  0  0
   21.3050   18.5300    4.3540 C   0  0  0  0  0  0  0  0  0  0  0  0
   19.8500   18.5690    4.8090 C   0  0  0  0  0  0  0  0  0  0  0  0
   19.0410   17.3960    4.2430 C   0  0  0  0  0  0  0  0  0  0  0  0
   19.8680   16.1170    4.0430 C   0  0  1  0  0  0  0  0  0  0  0  0
   21.0620   16.0670    5.0070 C   0  0  0  0  0  0  0  0  0  0  0  0
   22.7200   17.4950    6.0890 N   0  0  0  0  0  4  0  0  0  0  0  0
   18.8850   14.6260    4.2530 S   0  0  0  0  0  6  0  0  0  0  0  0
   19.1010   13.8310    3.0600 O   0  0  0  0  0  0  0  0  0  0  0  0
   19.2010   14.0940    5.5630 O   0  0  0  0  0  0  0  0  0  0  0  0
   17.1930   15.1800    4.2480 C   0  0  0  0  0  0  0  0  0  0  0  0
   22.7024   16.9784    3.9900 H   0  0  0  0  0  0  0  0  0  0  0  0
   21.8348   19.3936    4.7824 H   0  0  0  0  0  0  0  0  0  0  0  0
   21.3192   18.5614    3.2545 H   0  0  0  0  0  0  0  0  0  0  0  0
   19.8199   18.5242    5.9077 H   0  0  0  0  0  0  0  0  0  0  0  0
   19.4020   19.5023    4.4371 H   0  0  0  0  0  0  0  0  0  0  0  0
   18.2188   17.1730    4.9389 H   0  0  0  0  0  0  0  0  0  0  0  0
   18.6785   17.7036    3.2511 H   0  0  0  0  0  0  0  0  0  0  0  0
   20.2324   16.1515    3.0057 H   0  0  0  0  0  0  0  0  0  0  0  0
   20.6859   16.0892    6.0405 H   0  0  0  0  0  0  0  0  0  0  0  0
   21.6219   15.1411    4.8088 H   0  0  0  0  0  0  0  0  0  0  0  0
   22.0925   17.2752    6.8756 H   0  0  0  0  0  0  0  0  0  0  0  0
   23.5571   16.8971    6.1402 H   0  0  0  0  0  0  0  0  0  0  0  0
   23.0012   18.4845    6.1402 H   0  0  0  0  0  0  0  0  0  0  0  0
   16.8418   15.2950    5.2841 H   0  0  0  0  0  0  0  0  0  0  0  0
   17.1254   16.1472    3.7284 H   0  0  0  0  0  0  0  0  0  0  0  0
   16.5664   14.4401    3.7284 H   0  0  0  0  0  0  0  0  0  0  0  0
  2  1  1  0
  3  2  1  0
  4  3  1  0
  5  4  1  0
  6  5  1  0
  6  1  1  0
  7  1  1  0
  8  5  1  0
  9  8  2  0
 10  8  2  0
 11  8  1  0
  1 12  1  6
  2 13  1  0
  2 14  1  0
  3 15  1  0
  3 16  1  0
  4 17  1  0
  4 18  1  0
  5 19  1  6
  6 20  1  0
  6 21  1  0
  7 22  1  0
  7 23  1  0
  7 24  1  0
 11 25  1  0
 11 26  1  0
 11 27  1  0
M  CHG  1   7   1
M  END
$$$$
=
     RDKit          3D

 32 33  0  0  0  0  0  0  0  0999 V2000
   13.0870   13.0060    3.0780 C   0  0  0  0  0  0  0  0  0  0  0  0
   14.1300   12.3310    2.4750 C   0  0  0  0  0  0  0  0  0  0  0  0
   15.4280   12.6520    2.6390 N   0  0  0  0  0  0  0  0  0  0  0  0
   15.7560   13.7010    3.4260 C   0  0  0  0  0  0  0  0  0  0  0  0
   14.7610   14.4450    4.1100 C   0  0  0  0  0  0  0  0  0  0  0  0
   13.4000   14.0410    3.9750 C   0  0  0  0  0  0  0  0  0  0  0  0
   15.1610   15.5580    4.8880 C   0  0  0  0  0  0  0  0  0  0  0  0
   16.5030   15.9200    5.0310 C   0  0  0  0  0  0  0  0  0  0  0  0
   17.4720   15.1760    4.3600 C   0  0  0  0  0  0  0  0  0  0  0  0
   17.1050   14.0790    3.5700 C   0  0  0  0  0  0  0  0  0  0  0  0
   16.8850   17.1260    5.8370 C   0  0  0  0  0  0  0  0  0  0  0  0
   11.5170   11.3140    2.2720 N   0  0  0  0  0  0  0  0  0  0  0  0
   11.6900   12.5790    2.8310 C   0  0  0  0  0  0  0  0  0  0  0  0
   10.7510   13.3310    3.0890 O   0  0  0  0  0  0  0  0  0  0  0  0
   10.2150   10.8940    1.9270 N   0  0  0  0  0  0  0  0  0  0  0  0
   12.3590   14.8020    4.5780 N   0  0  0  0  0  0  0  0  0  0  0  0
   18.0140   13.3070    2.8760 O   0  0  0  0  0  0  0  0  0  0  0  0
   18.5230   12.1420    3.5090 C   0  0  0  0  0  0  0  0  0  0  0  0
   13.8863   11.4803    1.8216 H   0  0  0  0  0  0  0  0  0  0  0  0
   14.3909   16.1569    5.3961 H   0  0  0  0  0  0  0  0  0  0  0  0
   18.5328   15.4523    4.4515 H   0  0  0  0  0  0  0  0  0  0  0  0
   16.8101   16.8895    6.9087 H   0  0  0  0  0  0  0  0  0  0  0  0
   17.9187   17.4152    5.5967 H   0  0  0  0  0  0  0  0  0  0  0  0
   16.2063   17.9576    5.5967 H   0  0  0  0  0  0  0  0  0  0  0  0
   12.3259   10.6963    2.1135 H   0  0  0  0  0  0  0  0  0  0  0  0
    9.6722   10.7189    2.7847 H   0  0  0  0  0  0  0  0  0  0  0  0
    9.7530   11.6286    1.3722 H   0  0  0  0  0  0  0  0  0  0  0  0
   11.3782   14.5043    4.4764 H   0  0  0  0  0  0  0  0  0  0  0  0
   12.5866   15.6504    5.1160 H   0  0  0  0  0  0  0  0  0  0  0  0
   18.4693   12.2648    4.6008 H   0  0  0  0  0  0  0  0  0  0  0  0
   17.9239   11.2698    3.2082 H   0  0  0  0  0  0  0  0  0  0  0  0
   19.5700   11.9890    3.2082 H   0  0  0  0  0  0  0  0  0  0  0  0
  2  1  2  0
  3  2  1  0
  4  3  2  0
  5  4  1  0
  6  5  2  0
  6  1  1  0
  7  5  1  0
  8  7  2  0
  9  8  1  0
 10  4  1  0
 10  9  2  0
 11  8  1  0
 13 12  1  0
 13  1  1  0
 14 13  2  0
 15 12  1  0
 16  6  1  0
 17 10  1  0
 18 17  1  0
  2 19  1  0
  7 20  1  0
  9 21  1  0
 11 22  1  0
 11 23  1  0
 11 24  1  0
 12 25  1  0
 15 26  1  0
 15 27  1  0
 16 28  1  0
 16 29  1  0
 18 30  1  0
 18 31  1  0
 18 32  1  0
M  END
$$$$
=
     RDKit          3D

 29 30  0  0  0  0  0  0  0  0999 V2000
   26.6040   22.9850   11.0120 C   0  0  0  0  0  0  0  0  0  0  0  0
   27.6850   23.8000   11.2410 C   0  0  0  0  0  0  0  0  0  0  0  0
   27.3800   25.1130   11.5060 C   0  0  0  0  0  0  0  0  0  0  0  0
   28.4720   26.1060   11.7700 C   0  0  0  0  0  0  0  0  0  0  0  0
   26.1070   25.5630   11.5380 N   0  0  0  0  0  0  0  0  0  0  0  0
   25.1080   24.6990   11.3040 C   0  0  0  0  0  0  0  0  0  0  0  0
   25.3210   23.4090   11.0380 N   0  0  0  0  0  0  0  0  0  0  0  0
   23.7960   25.1790   11.3030 N   0  0  0  0  0  0  0  0  0  0  0  0
   22.7580   24.1500   11.4720 C   0  0  0  0  0  0  0  0  0  0  0  0
   21.3670   24.7120   11.0990 C   0  0  0  0  0  0  0  0  0  0  0  0
   21.4050   26.2140   10.9710 N   0  0  0  0  0  4  0  0  0  0  0  0
   22.1470   26.8640   12.1040 C   0  0  0  0  0  0  0  0  0  0  0  0
   23.6280   26.4300   12.0660 C   0  0  0  0  0  0  0  0  0  0  0  0
   26.9150   20.4590   10.4980 N   0  0  0  0  0  0  0  0  0  0  0  0
   26.7830   21.5900   10.7240 C   0  0  0  0  0  0  0  0  0  0  0  0
   28.7200   23.4286   11.2142 H   0  0  0  0  0  0  0  0  0  0  0  0
   28.6039   26.2260   12.8554 H   0  0  0  0  0  0  0  0  0  0  0  0
   29.4108   25.7458   11.3241 H   0  0  0  0  0  0  0  0  0  0  0  0
   28.2023   27.0747   11.3241 H   0  0  0  0  0  0  0  0  0  0  0  0
   22.9884   23.2941   10.8206 H   0  0  0  0  0  0  0  0  0  0  0  0
   22.7412   23.8337   12.5254 H   0  0  0  0  0  0  0  0  0  0  0  0
   21.0494   24.2776   10.1396 H   0  0  0  0  0  0  0  0  0  0  0  0
   20.6577   24.4471   11.8969 H   0  0  0  0  0  0  0  0  0  0  0  0
   21.8710   26.4593   10.0858 H   0  0  0  0  0  0  0  0  0  0  0  0
   20.4340   26.5568   10.9924 H   0  0  0  0  0  0  0  0  0  0  0  0
   22.0828   27.9576   12.0047 H   0  0  0  0  0  0  0  0  0  0  0  0
   21.6991   26.5555   13.0602 H   0  0  0  0  0  0  0  0  0  0  0  0
   24.2227   27.2236   11.5900 H   0  0  0  0  0  0  0  0  0  0  0  0
   23.9679   26.2578   13.0979 H   0  0  0  0  0  0  0  0  0  0  0  0
  2  1  2  0
  3  2  1  0
  4  3  1  0
  5  3  2  0
  6  5  1  0
  7  6  2  0
  7  1  1  0
  8  6  1  0
  9  8  1  0
 10  9  1  0
 11 10  1  0
 12 11  1  0
 13 12  1  0
 13  8  1  0
 15 14  3  0
 15  1  1  0
  2 16  1  0
  4 17  1  0
  4 18  1  0
  4 19  1  0
  9 20  1  0
  9 21  1  0
 10 22  1  0
 10 23  1  0
 11 24  1  0
 11 25  1  0
 12 26  1  0
 12 27  1  0
 13 28  1  0
 13 29  1  0
M  CHG  1  11   1
M  END
$$$$
=
     RDKit          3D

 16 16  0  0  0  0  0  0  0  0999 V2000
   28.6330   26.6910   -8.9570 C   0  0  0  0  0  0  0  0  0  0  0  0
   27.5390   25.6270   -9.1890 C   0  0  0  0  0  0  0  0  0  0  0  0
   28.5870   24.5890   -9.1670 N   0  0  0  0  0  4  0  0  0  0  0  0
   29.4760   25.5100   -8.4240 C   0  0  0  0  0  0  0  0  0  0  0  0
   28.2380   27.5840   -7.8560 N   0  0  0  0  0  0  0  0  0  0  0  0
   28.2380   26.8150   -6.6360 N   0  0  0  0  0  0  0  0  0  0  0  0
   28.9878   27.3867   -9.7317 H   0  0  0  0  0  0  0  0  0  0  0  0
   26.8040   25.5470   -8.3746 H   0  0  0  0  0  0  0  0  0  0  0  0
   26.8388   25.7082  -10.0335 H   0  0  0  0  0  0  0  0  0  0  0  0
   28.3282   23.7401   -8.6442 H   0  0  0  0  0  0  0  0  0  0  0  0
   28.9045   24.1477  -10.0418 H   0  0  0  0  0  0  0  0  0  0  0  0
   29.4469   25.3872   -7.3313 H   0  0  0  0  0  0  0  0  0  0  0  0
   30.5671   25.4819   -8.5604 H   0  0  0  0  0  0  0  0  0  0  0  0
   28.9090   28.3616   -7.7789 H   0  0  0  0  0  0  0  0  0  0  0  0
   29.2091   26.6319   -6.3456 H   0  0  0  0  0  0  0  0  0  0  0  0
   27.7525   27.3434   -5.8971 H   0  0  0  0  0  0  0  0  0  0  0  0
  2  1  1  0
  3  2  1  0
  4  3  1  0
  4  1  1  0
  5  1  1  0
  6  5  1  0
  1  7  1  0
  2  8  1  0
  2  9  1  0
  3 10  1  0
  3 11  1  0
  4 12  1  0
  4 13  1  0
  5 14  1  0
  6 15  1  0
  6 16  1  0
M  CHG  1   3   1
M  END
$$$$
=
     RDKit          3D

 51 51  0  0  0  0  0  0  0  0999 V2000
   18.6720   13.8860    3.5050 N   0  0  0  0  0  4  0  0  0  0  0  0
   17.1580   13.7910    3.5520 C   0  0  0  0  0  0  0  0  0  0  0  0
   16.5370   15.1640    3.2720 C   0  0  0  0  0  0  0  0  0  0  0  0
   15.6770   15.6990    4.4200 C   0  0  0  0  0  0  0  0  0  0  0  0
   14.7030   14.7310    5.0930 C   0  0  0  0  0  0  0  0  0  0  0  0
   13.7900   13.9390    4.1600 C   0  0  0  0  0  0  0  0  0  0  0  0
   14.3230   12.5590    3.7470 C   0  0  0  0  0  0  0  0  0  0  0  0
   15.1490   12.5470    2.4630 C   0  0  0  0  0  0  0  0  0  0  0  0
   16.6670   12.6710    2.6320 C   0  0  0  0  0  0  0  0  0  0  0  0
   19.3310   15.0860    4.1420 C   0  0  0  0  0  0  0  0  0  0  0  0
   18.4630   15.2760    6.5330 C   0  0  0  0  0  0  0  0  0  0  0  0
   19.6120   14.8390    5.6280 C   0  0  2  0  0  0  0  0  0  0  0  0
   20.8580   15.6210    5.9850 C   0  0  0  0  0  0  0  0  0  0  0  0
   21.3630   15.5970    7.0970 O   0  0  0  0  0  0  0  0  0  0  0  0
   21.2870   16.3270    4.9120 O   0  0  0  0  0  0  0  0  0  0  0  0
   21.4980   17.7630    4.9950 C   0  0  0  0  0  0  0  0  0  0  0  0
   20.2980   18.4620    5.6430 C   0  0  0  0  0  0  0  0  0  0  0  0
   21.6110   18.2280    3.5350 C   0  0  0  0  0  0  0  0  0  0  0  0
   22.8100   18.0870    5.7170 C   0  0  0  0  0  0  0  0  0  0  0  0
   19.0454   13.0480    3.9732 H   0  0  0  0  0  0  0  0  0  0  0  0
   18.8914   13.9760    2.5027 H   0  0  0  0  0  0  0  0  0  0  0  0
   16.8217   13.5105    4.5611 H   0  0  0  0  0  0  0  0  0  0  0  0
   17.3502   15.8807    3.0847 H   0  0  0  0  0  0  0  0  0  0  0  0
   15.8730   15.0441    2.4033 H   0  0  0  0  0  0  0  0  0  0  0  0
   16.3614   16.0691    5.1976 H   0  0  0  0  0  0  0  0  0  0  0  0
   15.0334   16.4590    3.9528 H   0  0  0  0  0  0  0  0  0  0  0  0
   15.2949   14.0099    5.6758 H   0  0  0  0  0  0  0  0  0  0  0  0
   14.0331   15.3594    5.6982 H   0  0  0  0  0  0  0  0  0  0  0  0
   12.8255   13.7940    4.6686 H   0  0  0  0  0  0  0  0  0  0  0  0
   13.7116   14.5278    3.2341 H   0  0  0  0  0  0  0  0  0  0  0  0
   14.9546   12.1783    4.5632 H   0  0  0  0  0  0  0  0  0  0  0  0
   13.4399   11.9329    3.5517 H   0  0  0  0  0  0  0  0  0  0  0  0
   14.9459   11.5995    1.9425 H   0  0  0  0  0  0  0  0  0  0  0  0
   14.8411   13.4450    1.9073 H   0  0  0  0  0  0  0  0  0  0  0  0
   17.0380   11.7179    3.0370 H   0  0  0  0  0  0  0  0  0  0  0  0
   17.0536   12.9216    1.6331 H   0  0  0  0  0  0  0  0  0  0  0  0
   20.2809   15.2899    3.6261 H   0  0  0  0  0  0  0  0  0  0  0  0
   18.6501   15.9454    4.0540 H   0  0  0  0  0  0  0  0  0  0  0  0
   18.7617   15.1624    7.5856 H   0  0  0  0  0  0  0  0  0  0  0  0
   18.2189   16.3297    6.3328 H   0  0  0  0  0  0  0  0  0  0  0  0
   17.5804   14.6508    6.3328 H   0  0  0  0  0  0  0  0  0  0  0  0
   19.7387   13.7578    5.7862 H   0  0  0  0  0  0  0  0  0  0  0  0
   20.3898   18.4085    6.7379 H   0  0  0  0  0  0  0  0  0  0  0  0
   20.2735   19.5157    5.3281 H   0  0  0  0  0  0  0  0  0  0  0  0
   19.3694   17.9635    5.3281 H   0  0  0  0  0  0  0  0  0  0  0  0
   21.8707   19.2966    3.5096 H   0  0  0  0  0  0  0  0  0  0  0  0
   22.3944   17.6481    3.0251 H   0  0  0  0  0  0  0  0  0  0  0  0
   20.6489   18.0722    3.0251 H   0  0  0  0  0  0  0  0  0  0  0  0
   22.6495   18.0474    6.8045 H   0  0  0  0  0  0  0  0  0  0  0  0
   23.5765   17.3512    5.4324 H   0  0  0  0  0  0  0  0  0  0  0  0
   23.1459   19.0951    5.4324 H   0  0  0  0  0  0  0  0  0  0  0  0
  2  1  1  0
  3  2  1  0
  4  3  1  0
  5  4  1  0
  6  5  1  0
  7  6  1  0
  8  7  1  0
  9  8  1  0
  9  2  1  0
 10  1  1  0
 12 10  1  0
 12 11  1  0
 13 12  1  0
 14 13  2  0
 15 13  1  0
 16 15  1  0
 17 16  1  0
 18 16  1  0
 19 16  1  0
  1 20  1  0
  1 21  1  0
  2 22  1  0
  3 23  1  0
  3 24  1  0
  4 25  1  0
  4 26  1  0
  5 27  1  0
  5 28  1  0
  6 29  1  0
  6 30  1  0
  7 31  1  0
  7 32  1  0
  8 33  1  0
  8 34  1  0
  9 35  1  0
  9 36  1  0
 10 37  1  0
 10 38  1  0
 11 39  1  0
 11 40  1  0
 11 41  1  0
 12 42  1  6
 17 43  1  0
 17 44  1  0
 17 45  1  0
 18 46  1  0
 18 47  1  0
 18 48  1  0
 19 49  1  0
 19 50  1  0
 19 51  1  0
M  CHG  1   1   1
M  END
$$$$
