
     RDKit          3D

 43 45  0  0  0  0  0  0  0  0999 V2000
   19.7720   15.0350    3.5000 N   0  0  0  0  0  4  0  0  0  0  0  0
   19.4970   16.9670    2.9480 C   0  0  0  0  0  0  0  0  0  0  0  0
   19.5220   17.8710    2.0670 O   0  0  0  0  0  0  0  0  0  0  0  0
   19.3920   17.4600    4.4030 C   0  0  0  0  0  0  0  0  0  0  0  0
   18.5470   14.6430    4.2060 C   0  0  1  0  0  0  0  0  0  0  0  0
   20.5037   15.2691    4.1861 H   0  0  0  0  0  0  0  0  0  0  0  0
   20.0924   14.2545    2.9092 H   0  0  0  0  0  0  0  0  0  0  0  0
   18.1090   15.5150    5.3370 C   0  0  0  0  0  0  0  0  0  0  0  0
   17.3320   15.5280    4.0380 C   0  0  2  0  0  0  0  0  0  0  0  0
   18.7429   13.5676    4.0825 H   0  0  0  0  0  0  0  0  0  0  0  0
   18.7141   16.3878    5.6234 H   0  0  0  0  0  0  0  0  0  0  0  0
   17.8518   15.3449    6.3929 H   0  0  0  0  0  0  0  0  0  0  0  0
   15.9610   14.8960    3.9690 C   0  0  0  0  0  0  0  0  0  0  0  0
   17.0170   16.3065    3.3275 H   0  0  0  0  0  0  0  0  0  0  0  0
   15.7620   13.6500    3.3550 C   0  0  0  0  0  0  0  0  0  0  0  0
   14.8310   15.5440    4.4880 C   0  0  0  0  0  0  0  0  0  0  0  0
   14.4920   13.0650    3.2840 C   0  0  0  0  0  0  0  0  0  0  0  0
   16.6228   13.1212    2.9199 H   0  0  0  0  0  0  0  0  0  0  0  0
   13.5590   14.9640    4.4210 C   0  0  0  0  0  0  0  0  0  0  0  0
   14.9470   16.5313    4.9588 H   0  0  0  0  0  0  0  0  0  0  0  0
   13.3750   13.7140    3.8210 C   0  0  0  0  0  0  0  0  0  0  0  0
   14.3711   12.0843    2.8007 H   0  0  0  0  0  0  0  0  0  0  0  0
   12.6949   15.4968    4.8447 H   0  0  0  0  0  0  0  0  0  0  0  0
   11.9850   13.1030    3.7540 C   0  0  0  0  0  0  0  0  0  0  0  0
   11.7610   12.3550    2.4380 C   0  0  0  0  0  0  0  0  0  0  0  0
   10.8980   14.1580    3.9750 C   0  0  0  0  0  0  0  0  0  0  0  0
   11.9143   12.3700    4.5712 H   0  0  0  0  0  0  0  0  0  0  0  0
   11.4515   11.3213    2.6519 H   0  0  0  0  0  0  0  0  0  0  0  0
   10.9749   12.8606    1.8581 H   0  0  0  0  0  0  0  0  0  0  0  0
   12.6957   12.3453    1.8581 H   0  0  0  0  0  0  0  0  0  0  0  0
   10.7451   14.3064    5.0542 H   0  0  0  0  0  0  0  0  0  0  0  0
   11.2094   15.1073    3.5148 H   0  0  0  0  0  0  0  0  0  0  0  0
    9.9584   13.8183    3.5148 H   0  0  0  0  0  0  0  0  0  0  0  0
   20.3630   16.8540    5.3200 N   0  0  0  0  0  0  0  0  0  0  0  0
   18.3813   17.2309    4.7717 H   0  0  0  0  0  0  0  0  0  0  0  0
   19.6080   18.5384    4.3852 H   0  0  0  0  0  0  0  0  0  0  0  0
   20.0910   15.8330    6.1630 C   0  0  0  0  0  0  0  0  0  0  0  0
   21.6920   17.1130    5.4930 C   0  0  0  0  0  0  0  0  0  0  0  0
   21.0930   15.4300    6.8850 N   0  0  0  0  0  0  0  0  0  0  0  0
   19.0928   15.3761    6.2327 H   0  0  0  0  0  0  0  0  0  0  0  0
   22.1240   16.2300    6.4770 N   0  0  0  0  0  0  0  0  0  0  0  0
   22.6840   18.2270    4.7710 S   0  0  0  0  0  0  0  0  0  0  0  0
   23.0846   16.1851    6.8461 H   0  0  0  0  0  0  0  0  0  0  0  0
  1  2  1  0
  2  3  2  0
  2  4  1  0
  1  5  1  0
  1  6  1  0
  1  7  1  0
  5  8  1  0
  5  9  1  0
  5 10  1  1
  8  9  1  0
  8 11  1  0
  8 12  1  0
  9 13  1  0
  9 14  1  6
 13 15  2  0
 16 13  1  0
 15 17  1  0
 15 18  1  0
 19 16  2  0
 16 20  1  0
 17 21  2  0
 17 22  1  0
 19 21  1  0
 19 23  1  0
 24 21  1  0
 24 25  1  0
 26 24  1  0
 24 27  1  0
 25 28  1  0
 25 29  1  0
 25 30  1  0
 26 31  1  0
 26 32  1  0
 26 33  1  0
  4 34  1  0
  4 35  1  0
  4 36  1  0
 37 34  1  0
 38 34  1  0
 39 37  2  0
 37 40  1  0
 38 41  1  0
 42 38  2  0
 41 39  1  0
 41 43  1  0
M  CHG  1   1   1
M  END
$$$$

     RDKit          3D

 43 44  0  0  0  0  0  0  0  0999 V2000
   19.7720   15.0350    3.5000 N   0  0  0  0  0  4  0  0  0  0  0  0
   19.5790   17.0590    2.6260 C   0  0  0  0  0  0  0  0  0  0  0  0
   19.5650   17.6870    1.5280 O   0  0  0  0  0  0  0  0  0  0  0  0
   19.9350   17.8940    3.8570 C   0  0  0  0  0  0  0  0  0  0  0  0
   18.5470   14.6430    4.2060 C   0  0  1  0  0  0  0  0  0  0  0  0
   20.5037   15.2691    4.1861 H   0  0  0  0  0  0  0  0  0  0  0  0
   20.0924   14.2545    2.9092 H   0  0  0  0  0  0  0  0  0  0  0  0
   18.1090   15.5150    5.3370 C   0  0  0  0  0  0  0  0  0  0  0  0
   17.3320   15.5280    4.0380 C   0  0  2  0  0  0  0  0  0  0  0  0
   18.7429   13.5676    4.0825 H   0  0  0  0  0  0  0  0  0  0  0  0
   18.7141   16.3878    5.6234 H   0  0  0  0  0  0  0  0  0  0  0  0
   17.8518   15.3449    6.3929 H   0  0  0  0  0  0  0  0  0  0  0  0
   15.9610   14.8960    3.9690 C   0  0  0  0  0  0  0  0  0  0  0  0
   17.0170   16.3065    3.3275 H   0  0  0  0  0  0  0  0  0  0  0  0
   15.7620   13.6500    3.3550 C   0  0  0  0  0  0  0  0  0  0  0  0
   14.8310   15.5440    4.4880 C   0  0  0  0  0  0  0  0  0  0  0  0
   14.4920   13.0650    3.2840 C   0  0  0  0  0  0  0  0  0  0  0  0
   16.6228   13.1212    2.9199 H   0  0  0  0  0  0  0  0  0  0  0  0
   13.5590   14.9640    4.4210 C   0  0  0  0  0  0  0  0  0  0  0  0
   14.9470   16.5313    4.9588 H   0  0  0  0  0  0  0  0  0  0  0  0
   13.3750   13.7140    3.8210 C   0  0  0  0  0  0  0  0  0  0  0  0
   14.3711   12.0843    2.8007 H   0  0  0  0  0  0  0  0  0  0  0  0
   12.6949   15.4968    4.8447 H   0  0  0  0  0  0  0  0  0  0  0  0
   11.9850   13.1030    3.7540 C   0  0  0  0  0  0  0  0  0  0  0  0
   11.7610   12.3550    2.4380 C   0  0  0  0  0  0  0  0  0  0  0  0
   10.8980   14.1580    3.9750 C   0  0  0  0  0  0  0  0  0  0  0  0
   11.9143   12.3700    4.5712 H   0  0  0  0  0  0  0  0  0  0  0  0
   11.4515   11.3213    2.6519 H   0  0  0  0  0  0  0  0  0  0  0  0
   10.9749   12.8606    1.8581 H   0  0  0  0  0  0  0  0  0  0  0  0
   12.6957   12.3453    1.8581 H   0  0  0  0  0  0  0  0  0  0  0  0
   10.7451   14.3064    5.0542 H   0  0  0  0  0  0  0  0  0  0  0  0
   11.2094   15.1073    3.5148 H   0  0  0  0  0  0  0  0  0  0  0  0
    9.9584   13.8183    3.5148 H   0  0  0  0  0  0  0  0  0  0  0  0
   19.4980   16.9020    5.3090 S   0  0  0  0  0  0  0  0  0  0  0  0
   19.3635   18.8339    3.8549 H   0  0  0  0  0  0  0  0  0  0  0  0
   21.0045   18.1512    3.8628 H   0  0  0  0  0  0  0  0  0  0  0  0
   21.3520   16.1670    5.9380 S   0  0  0  0  0  6  0  0  0  0  0  0
   21.8830   15.3080    4.8960 O   0  0  0  0  0  0  0  0  0  0  0  0
   21.2740   15.7560    7.3240 O   0  0  0  0  0  0  0  0  0  0  0  0
   22.3930   17.6030    5.9370 C   0  0  0  0  0  0  0  0  0  0  0  0
   22.6085   17.9003    6.9739 H   0  0  0  0  0  0  0  0  0  0  0  0
   23.3352   17.3725    5.4182 H   0  0  0  0  0  0  0  0  0  0  0  0
   21.8809   18.4268    5.4182 H   0  0  0  0  0  0  0  0  0  0  0  0
  1  2  1  0
  2  3  2  0
  2  4  1  0
  1  5  1  0
  1  6  1  0
  1  7  1  0
  5  8  1  0
  5  9  1  0
  5 10  1  1
  8  9  1  0
  8 11  1  0
  8 12  1  0
  9 13  1  0
  9 14  1  6
 13 15  2  0
 16 13  1  0
 15 17  1  0
 15 18  1  0
 19 16  2  0
 16 20  1  0
 17 21  2  0
 17 22  1  0
 19 21  1  0
 19 23  1  0
 24 21  1  0
 24 25  1  0
 26 24  1  0
 24 27  1  0
 25 28  1  0
 25 29  1  0
 25 30  1  0
 26 31  1  0
 26 32  1  0
 26 33  1  0
  4 34  1  0
  4 35  1  0
  4 36  1  0
 37 34  1  0
 38 37  2  0
 39 37  2  0
 40 37  1  0
 40 41  1  0
 40 42  1  0
 40 43  1  0
M  CHG  1   1   1
M  END
$$$$

     RDKit          3D

 38 40  0  0  0  0  0  0  0  0999 V2000
   19.2690   17.6710    4.2440 N   0  0  0  0  0  4  0  0  0  0  0  0
   19.0190   16.3280    3.9320 C   0  0  0  0  0  0  0  0  0  0  0  0
   19.9040   15.4950    3.5410 O   0  0  0  0  0  0  0  0  0  0  0  0
   17.6260   15.7770    4.1940 C   0  0  0  0  0  0  0  0  0  0  0  0
   20.4300   17.7890    3.3120 C   0  0  0  0  0  0  0  0  0  0  0  0
   19.6130   18.4570    5.4670 C   0  0  0  0  0  0  0  0  0  0  0  0
   18.4207   18.0545    3.8034 H   0  0  0  0  0  0  0  0  0  0  0  0
   21.6190   18.1070    4.1620 C   0  0  1  0  0  0  0  0  0  0  0  0
   20.2546   18.5957    2.5851 H   0  0  0  0  0  0  0  0  0  0  0  0
   20.5821   16.8602    2.7426 H   0  0  0  0  0  0  0  0  0  0  0  0
   21.1070   18.5250    5.5130 C   0  0  2  0  0  0  0  0  0  0  0  0
   19.1870   19.4691    5.4021 H   0  0  0  0  0  0  0  0  0  0  0  0
   19.2051   17.9865    6.3738 H   0  0  0  0  0  0  0  0  0  0  0  0
   22.0330   17.3260    5.3980 C   0  0  1  0  0  0  0  0  0  0  0  0
   22.2513   18.4358    3.3241 H   0  0  0  0  0  0  0  0  0  0  0  0
   21.1426   19.3410    6.2499 H   0  0  0  0  0  0  0  0  0  0  0  0
   21.6490   15.9090    5.6920 C   0  0  0  0  0  0  0  0  0  0  0  0
   22.9889   17.0265    5.8525 H   0  0  0  0  0  0  0  0  0  0  0  0
   21.5550   15.6420    7.0920 O   0  0  0  0  0  0  0  0  0  0  0  0
   20.6722   15.7058    5.2287 H   0  0  0  0  0  0  0  0  0  0  0  0
   22.4368   15.2597    5.2823 H   0  0  0  0  0  0  0  0  0  0  0  0
   21.8371   16.4433    7.6004 H   0  0  0  0  0  0  0  0  0  0  0  0
   16.7910   16.4100    5.1320 C   0  0  0  0  0  0  0  0  0  0  0  0
   17.1240   14.6400    3.5190 C   0  0  0  0  0  0  0  0  0  0  0  0
   15.5120   15.9240    5.4020 C   0  0  0  0  0  0  0  0  0  0  0  0
   17.1528   17.3036    5.6617 H   0  0  0  0  0  0  0  0  0  0  0  0
   15.8300   14.1440    3.7770 C   0  0  0  0  0  0  0  0  0  0  0  0
   17.7570   14.1318    2.7767 H   0  0  0  0  0  0  0  0  0  0  0  0
   15.0420   14.7830    4.7500 C   0  0  0  0  0  0  0  0  0  0  0  0
   14.8715   16.4417    6.1312 H   0  0  0  0  0  0  0  0  0  0  0  0
   15.1970   12.7020    2.8490 S   0  0  0  0  0  4  0  0  0  0  0  0
   13.7710   14.3920    5.1030 O   0  0  0  0  0  0  0  0  0  0  0  0
   16.2960   12.1320    1.9840 O   0  0  0  0  0  0  0  0  0  0  0  0
   14.5850   11.7350    3.8380 O   0  0  0  0  0  1  0  0  0  0  0  0
   12.7940   15.0010    4.2570 C   0  0  0  0  0  0  0  0  0  0  0  0
   12.0221   15.4822    4.8756 H   0  0  0  0  0  0  0  0  0  0  0  0
   13.2789   15.7571    3.6220 H   0  0  0  0  0  0  0  0  0  0  0  0
   12.3287   14.2327    3.6220 H   0  0  0  0  0  0  0  0  0  0  0  0
  1  2  1  0
  2  3  2  0
  2  4  1  0
  1  5  1  0
  6  1  1  0
  1  7  1  0
  5  8  1  0
  5  9  1  0
  5 10  1  0
  6 11  1  0
  6 12  1  0
  6 13  1  0
  8 11  1  0
  8 14  1  0
  8 15  1  6
 11 14  1  0
 11 16  1  1
 17 14  1  0
 14 18  1  1
 19 17  1  0
 17 20  1  0
 17 21  1  0
 19 22  1  0
  4 23  2  0
 24  4  1  0
 23 25  1  0
 23 26  1  0
 27 24  2  0
 24 28  1  0
 25 29  2  0
 25 30  1  0
 27 29  1  0
 31 27  1  0
 32 29  1  0
 33 31  2  0
 31 34  1  1
 32 35  1  0
 35 36  1  0
 35 37  1  0
 35 38  1  0
M  CHG  2   1   1  34  -1
M  END
$$$$

     RDKit          3D

 46 49  0  0  0  0  0  0  0  0999 V2000
   19.2690   17.6710    4.2440 N   0  0  0  0  0  4  0  0  0  0  0  0
   19.5760   15.9820    3.6740 C   0  0  0  0  0  0  0  0  0  0  0  0
   20.1760   14.8970    3.9170 O   0  0  0  0  0  0  0  0  0  0  0  0
   18.1090   15.8250    3.3030 C   0  0  0  0  0  0  0  0  0  0  0  0
   20.4300   17.7890    3.3120 C   0  0  0  0  0  0  0  0  0  0  0  0
   19.6130   18.4570    5.4670 C   0  0  0  0  0  0  0  0  0  0  0  0
   18.4207   18.0545    3.8034 H   0  0  0  0  0  0  0  0  0  0  0  0
   21.6190   18.1070    4.1620 C   0  0  1  0  0  0  0  0  0  0  0  0
   20.2546   18.5957    2.5851 H   0  0  0  0  0  0  0  0  0  0  0  0
   20.5821   16.8602    2.7426 H   0  0  0  0  0  0  0  0  0  0  0  0
   21.1070   18.5250    5.5130 C   0  0  2  0  0  0  0  0  0  0  0  0
   19.1870   19.4691    5.4021 H   0  0  0  0  0  0  0  0  0  0  0  0
   19.2051   17.9865    6.3738 H   0  0  0  0  0  0  0  0  0  0  0  0
   22.0330   17.3260    5.3980 C   0  0  1  0  0  0  0  0  0  0  0  0
   22.2513   18.4358    3.3241 H   0  0  0  0  0  0  0  0  0  0  0  0
   21.1426   19.3410    6.2499 H   0  0  0  0  0  0  0  0  0  0  0  0
   21.6490   15.9090    5.6920 C   0  0  0  0  0  0  0  0  0  0  0  0
   22.9889   17.0265    5.8525 H   0  0  0  0  0  0  0  0  0  0  0  0
   21.5550   15.6420    7.0920 O   0  0  0  0  0  0  0  0  0  0  0  0
   20.6722   15.7058    5.2287 H   0  0  0  0  0  0  0  0  0  0  0  0
   22.4368   15.2597    5.2823 H   0  0  0  0  0  0  0  0  0  0  0  0
   21.8371   16.4433    7.6004 H   0  0  0  0  0  0  0  0  0  0  0  0
   17.2730   15.1930    4.4110 C   0  0  1  0  0  0  0  0  0  0  0  0
   18.0409   15.1893    2.4079 H   0  0  0  0  0  0  0  0  0  0  0  0
   17.7072   16.8335    3.1253 H   0  0  0  0  0  0  0  0  0  0  0  0
   16.5230   16.3070    5.1810 C   0  0  0  0  0  0  0  0  0  0  0  0
   16.1160   14.3420    3.9130 C   0  0  0  0  0  0  0  0  0  0  0  0
   17.9960   14.5978    4.9881 H   0  0  0  0  0  0  0  0  0  0  0  0
   16.9950   17.2430    5.8090 O   0  0  0  0  0  0  0  0  0  0  0  0
   15.1610   16.0750    5.0440 N   0  0  0  0  0  0  0  0  0  0  0  0
   14.9130   14.9310    4.3090 C   0  0  0  0  0  0  0  0  0  0  0  0
   16.1000   13.1420    3.2110 C   0  0  0  0  0  0  0  0  0  0  0  0
   14.4274   16.6796    5.4404 H   0  0  0  0  0  0  0  0  0  0  0  0
   13.6740   14.4050    4.0050 C   0  0  0  0  0  0  0  0  0  0  0  0
   17.3540   12.4420    2.7860 C   0  0  0  0  0  0  0  0  0  0  0  0
   14.8420   12.6010    2.8760 C   0  0  0  0  0  0  0  0  0  0  0  0
   13.6340   13.2260    3.2550 C   0  0  0  0  0  0  0  0  0  0  0  0
   12.7493   14.8967    4.3414 H   0  0  0  0  0  0  0  0  0  0  0  0
   17.9180   12.1272    3.6764 H   0  0  0  0  0  0  0  0  0  0  0  0
   17.0948   11.5581    2.1847 H   0  0  0  0  0  0  0  0  0  0  0  0
   17.9703   13.1266    2.1847 H   0  0  0  0  0  0  0  0  0  0  0  0
   14.8003   11.6636    2.3020 H   0  0  0  0  0  0  0  0  0  0  0  0
   12.3210   12.5910    2.9070 C   0  0  0  0  0  0  0  0  0  0  0  0
   11.7832   12.3309    3.8307 H   0  0  0  0  0  0  0  0  0  0  0  0
   11.7172   13.2967    2.3175 H   0  0  0  0  0  0  0  0  0  0  0  0
   12.4993   11.6796    2.3175 H   0  0  0  0  0  0  0  0  0  0  0  0
  1  2  1  0
  2  3  2  0
  2  4  1  0
  1  5  1  0
  6  1  1  0
  1  7  1  0
  5  8  1  0
  5  9  1  0
  5 10  1  0
  6 11  1  0
  6 12  1  0
  6 13  1  0
  8 11  1  0
  8 14  1  0
  8 15  1  6
 11 14  1  0
 11 16  1  1
 17 14  1  0
 14 18  1  1
 19 17  1  0
 17 20  1  0
 17 21  1  0
 19 22  1  0
  4 23  1  0
  4 24  1  0
  4 25  1  0
 26 23  1  0
 27 23  1  0
 23 28  1  1
 29 26  2  0
 30 26  1  0
 27 31  2  0
 32 27  1  0
 31 30  1  0
 30 33  1  0
 34 31  1  0
 35 32  1  0
 36 32  2  0
 34 37  2  0
 34 38  1  0
 35 39  1  0
 35 40  1  0
 35 41  1  0
 37 36  1  0
 36 42  1  0
 43 37  1  0
 43 44  1  0
 43 45  1  0
 43 46  1  0
M  CHG  1   1   1
M  END
$$$$

     RDKit          3D

 39 41  0  0  0  0  0  0  0  0999 V2000
   19.2690   17.6710    4.2440 N   0  0  0  0  0  4  0  0  0  0  0  0
   18.5880   15.8570    3.7050 C   0  0  0  0  0  0  0  0  0  0  0  0
   19.4290   14.9780    3.3360 O   0  0  0  0  0  0  0  0  0  0  0  0
   17.1820   15.3760    4.0130 C   0  0  0  0  0  0  0  0  0  0  0  0
   20.4300   17.7890    3.3120 C   0  0  0  0  0  0  0  0  0  0  0  0
   19.6130   18.4570    5.4670 C   0  0  0  0  0  0  0  0  0  0  0  0
   18.4207   18.0545    3.8034 H   0  0  0  0  0  0  0  0  0  0  0  0
   21.6190   18.1070    4.1620 C   0  0  1  0  0  0  0  0  0  0  0  0
   20.2546   18.5957    2.5851 H   0  0  0  0  0  0  0  0  0  0  0  0
   20.5821   16.8602    2.7426 H   0  0  0  0  0  0  0  0  0  0  0  0
   21.1070   18.5250    5.5130 C   0  0  2  0  0  0  0  0  0  0  0  0
   19.1870   19.4691    5.4021 H   0  0  0  0  0  0  0  0  0  0  0  0
   19.2051   17.9865    6.3738 H   0  0  0  0  0  0  0  0  0  0  0  0
   22.0330   17.3260    5.3980 C   0  0  1  0  0  0  0  0  0  0  0  0
   22.2513   18.4358    3.3241 H   0  0  0  0  0  0  0  0  0  0  0  0
   21.1426   19.3410    6.2499 H   0  0  0  0  0  0  0  0  0  0  0  0
   21.6490   15.9090    5.6920 C   0  0  0  0  0  0  0  0  0  0  0  0
   22.9889   17.0265    5.8525 H   0  0  0  0  0  0  0  0  0  0  0  0
   21.5550   15.6420    7.0920 O   0  0  0  0  0  0  0  0  0  0  0  0
   20.6722   15.7058    5.2287 H   0  0  0  0  0  0  0  0  0  0  0  0
   22.4368   15.2597    5.2823 H   0  0  0  0  0  0  0  0  0  0  0  0
   21.8371   16.4433    7.6004 H   0  0  0  0  0  0  0  0  0  0  0  0
   16.3690   16.0660    4.9200 C   0  0  0  0  0  0  0  0  0  0  0  0
   16.6570   14.2290    3.3970 C   0  0  0  0  0  0  0  0  0  0  0  0
   15.0720   15.6270    5.2070 C   0  0  0  0  0  0  0  0  0  0  0  0
   16.7564   16.9685    5.4154 H   0  0  0  0  0  0  0  0  0  0  0  0
   15.3530   13.7730    3.6750 C   0  0  0  0  0  0  0  0  0  0  0  0
   17.2786   13.6727    2.6799 H   0  0  0  0  0  0  0  0  0  0  0  0
   14.5580   14.4840    4.5900 C   0  0  0  0  0  0  0  0  0  0  0  0
   14.4525   16.1860    5.9237 H   0  0  0  0  0  0  0  0  0  0  0  0
   14.8250   12.5390    2.9970 C   0  0  0  0  0  0  0  0  0  0  0  0
   13.3020   13.9810    4.8090 O   0  0  0  0  0  0  0  0  0  0  0  0
   14.5850   11.5070    3.8620 F   0  0  0  0  0  0  0  0  0  0  0  0
   13.6420   12.7270    2.3400 F   0  0  0  0  0  0  0  0  0  0  0  0
   15.6740   12.0360    2.0520 F   0  0  0  0  0  0  0  0  0  0  0  0
   12.2000   14.7920    4.4230 C   0  0  0  0  0  0  0  0  0  0  0  0
   11.6890   15.1681    5.3216 H   0  0  0  0  0  0  0  0  0  0  0  0
   12.5615   15.6411    3.8244 H   0  0  0  0  0  0  0  0  0  0  0  0
   11.4968   14.1943    3.8244 H   0  0  0  0  0  0  0  0  0  0  0  0
  1  2  1  0
  2  3  2  0
  2  4  1  0
  1  5  1  0
  6  1  1  0
  1  7  1  0
  5  8  1  0
  5  9  1  0
  5 10  1  0
  6 11  1  0
  6 12  1  0
  6 13  1  0
  8 11  1  0
  8 14  1  0
  8 15  1  6
 11 14  1  0
 11 16  1  1
 17 14  1  0
 14 18  1  1
 19 17  1  0
 17 20  1  0
 17 21  1  0
 19 22  1  0
  4 23  2  0
 24  4  1  0
 23 25  1  0
 23 26  1  0
 27 24  2  0
 24 28  1  0
 25 29  2  0
 25 30  1  0
 27 29  1  0
 31 27  1  0
 32 29  1  0
 33 31  1  0
 34 31  1  0
 35 31  1  0
 32 36  1  0
 36 37  1  0
 36 38  1  0
 36 39  1  0
M  CHG  1   1   1
M  END
$$$$

     RDKit          3D

 33 33  0  0  0  0  0  0  0  0999 V2000
   19.3130   14.7560    3.7660 N   0  0  0  0  0  0  0  0  0  0  0  0
   19.8280   16.2790    3.9320 C   0  0  0  0  0  0  0  0  0  0  0  0
   20.3040   17.2460    3.2620 O   0  0  0  0  0  0  0  0  0  0  0  0
   19.6610   16.5380    5.4090 C   0  0  2  0  0  0  0  0  0  0  0  0
   18.1190   14.0950    3.4920 C   0  0  0  0  0  0  0  0  0  0  0  0
   20.2096   14.2561    3.6813 H   0  0  0  0  0  0  0  0  0  0  0  0
   18.0830   12.7590    3.1000 C   0  0  0  0  0  0  0  0  0  0  0  0
   16.9870   14.7980    3.6560 N   0  0  0  0  0  0  0  0  0  0  0  0
   16.9350   12.0840    2.8310 N   0  0  0  0  0  0  0  0  0  0  0  0
   19.0372   12.2204    3.0028 H   0  0  0  0  0  0  0  0  0  0  0  0
   15.8380   14.1180    3.4060 C   0  0  0  0  0  0  0  0  0  0  0  0
   15.8030   12.7890    2.9870 C   0  0  0  0  0  0  0  0  0  0  0  0
   14.8822   14.6453    3.5417 H   0  0  0  0  0  0  0  0  0  0  0  0
   14.6080   12.1180    2.7450 N   0  0  0  0  0  0  0  0  0  0  0  0
   13.7100   12.6114    2.8498 H   0  0  0  0  0  0  0  0  0  0  0  0
   14.6216   11.1280    2.4611 H   0  0  0  0  0  0  0  0  0  0  0  0
   21.2250   16.1720    6.1960 S   0  0  0  0  0  6  0  0  0  0  0  0
   18.5200   15.7040    6.0020 C   0  0  0  0  0  0  0  0  0  0  0  0
   19.3863   17.5889    5.5826 H   0  0  0  0  0  0  0  0  0  0  0  0
   20.9760   15.3520    7.3680 O   0  0  0  0  0  0  0  0  0  0  0  0
   22.0200   17.3740    6.3330 O   0  0  0  0  0  0  0  0  0  0  0  0
   22.0720   15.2000    5.1100 N   0  0  0  0  0  0  0  0  0  0  0  0
   17.1980   16.4590    6.1800 C   0  0  0  0  0  0  0  0  0  0  0  0
   18.3385   14.8487    5.3346 H   0  0  0  0  0  0  0  0  0  0  0  0
   18.8450   15.4064    7.0099 H   0  0  0  0  0  0  0  0  0  0  0  0
   22.6555   14.5304    5.6315 H   0  0  0  0  0  0  0  0  0  0  0  0
   21.4050   14.6854    4.5175 H   0  0  0  0  0  0  0  0  0  0  0  0
   16.0090   15.7590    5.5410 C   0  0  0  0  0  0  0  0  0  0  0  0
   17.3017   17.4549    5.7245 H   0  0  0  0  0  0  0  0  0  0  0  0
   16.9992   16.5131    7.2605 H   0  0  0  0  0  0  0  0  0  0  0  0
   15.3467   15.3691    6.3280 H   0  0  0  0  0  0  0  0  0  0  0  0
   15.4544   16.4747    4.9164 H   0  0  0  0  0  0  0  0  0  0  0  0
   16.3657   14.9268    4.9164 H   0  0  0  0  0  0  0  0  0  0  0  0
  1  2  1  0
  2  3  2  0
  2  4  1  0
  1  5  1  0
  1  6  1  0
  5  7  2  0
  8  5  1  0
  7  9  1  0
  7 10  1  0
 11  8  2  0
  9 12  2  0
 11 12  1  0
 11 13  1  0
 12 14  1  0
 14 15  1  0
 14 16  1  0
 17  4  1  0
 18  4  1  0
  4 19  1  6
 20 17  2  0
 21 17  2  0
 22 17  1  0
 23 18  1  0
 18 24  1  0
 18 25  1  0
 22 26  1  0
 22 27  1  0
 23 28  1  0
 23 29  1  0
 23 30  1  0
 28 31  1  0
 28 32  1  0
 28 33  1  0
M  END
$$$$

     RDKit          3D

 32 32  0  0  0  0  0  0  0  0999 V2000
   19.3130   14.7560    3.7660 N   0  0  0  0  0  0  0  0  0  0  0  0
   18.9000   15.7890    3.6610 C   0  0  0  0  0  0  0  0  0  0  0  0
   17.8040   16.1510    4.1740 O   0  0  0  0  0  0  0  0  0  0  0  0
   19.8860   16.9490    3.3630 C   0  0  0  0  0  0  0  0  0  0  0  0
   18.1190   14.0950    3.4920 C   0  0  0  0  0  0  0  0  0  0  0  0
   20.2096   14.2561    3.6813 H   0  0  0  0  0  0  0  0  0  0  0  0
   18.0830   12.7590    3.1000 C   0  0  0  0  0  0  0  0  0  0  0  0
   16.9870   14.7980    3.6560 N   0  0  0  0  0  0  0  0  0  0  0  0
   16.9350   12.0840    2.8310 N   0  0  0  0  0  0  0  0  0  0  0  0
   19.0372   12.2204    3.0028 H   0  0  0  0  0  0  0  0  0  0  0  0
   15.8380   14.1180    3.4060 C   0  0  0  0  0  0  0  0  0  0  0  0
   15.8030   12.7890    2.9870 C   0  0  0  0  0  0  0  0  0  0  0  0
   14.8822   14.6453    3.5417 H   0  0  0  0  0  0  0  0  0  0  0  0
   14.6080   12.1180    2.7450 N   0  0  0  0  0  0  0  0  0  0  0  0
   13.7100   12.6114    2.8498 H   0  0  0  0  0  0  0  0  0  0  0  0
   14.6216   11.1280    2.4611 H   0  0  0  0  0  0  0  0  0  0  0  0
   20.8140   17.3360    4.2700 C   0  0  0  0  0  0  0  0  0  0  0  0
   19.6900   17.5180    1.9890 C   0  0  0  0  0  0  0  0  0  0  0  0
   20.9440   16.6880    5.6290 C   0  0  0  0  0  0  0  0  0  0  0  0
   21.7870   18.4710    4.0330 C   0  0  0  0  0  0  0  0  0  0  0  0
   19.3327   18.5553    2.0692 H   0  0  0  0  0  0  0  0  0  0  0  0
   20.6460   17.5005    1.4451 H   0  0  0  0  0  0  0  0  0  0  0  0
   18.9476   16.9155    1.4451 H   0  0  0  0  0  0  0  0  0  0  0  0
   20.7921   17.4452    6.4123 H   0  0  0  0  0  0  0  0  0  0  0  0
   20.1867   15.8969    5.7320 H   0  0  0  0  0  0  0  0  0  0  0  0
   21.9479   16.2502    5.7320 H   0  0  0  0  0  0  0  0  0  0  0  0
   22.9990   18.3910    4.9490 C   0  0  0  0  0  0  0  0  0  0  0  0
   22.1295   18.4315    2.9884 H   0  0  0  0  0  0  0  0  0  0  0  0
   21.2636   19.4143    4.2478 H   0  0  0  0  0  0  0  0  0  0  0  0
   22.6680   18.4128    5.9978 H   0  0  0  0  0  0  0  0  0  0  0  0
   23.5435   17.4550    4.7558 H   0  0  0  0  0  0  0  0  0  0  0  0
   23.6618   19.2473    4.7558 H   0  0  0  0  0  0  0  0  0  0  0  0
  1  2  1  0
  2  3  2  0
  2  4  1  0
  1  5  1  0
  1  6  1  0
  5  7  2  0
  8  5  1  0
  7  9  1  0
  7 10  1  0
 11  8  2  0
  9 12  2  0
 11 12  1  0
 11 13  1  0
 12 14  1  0
 14 15  1  0
 14 16  1  0
  4 17  2  0
 18  4  1  0
 19 17  1  0
 20 17  1  0
 18 21  1  0
 18 22  1  0
 18 23  1  0
 19 24  1  0
 19 25  1  0
 19 26  1  0
 20 27  1  0
 20 28  1  0
 20 29  1  0
 27 30  1  0
 27 31  1  0
 27 32  1  0
M  END
$$$$

     RDKit          3D

 35 37  0  0  0  0  0  0  0  0999 V2000
   19.3130   14.7560    3.7660 N   0  0  0  0  0  0  0  0  0  0  0  0
   19.6320   16.6690    3.5140 C   0  0  0  0  0  0  0  0  0  0  0  0
   19.7630   17.6830    2.8010 O   0  0  0  0  0  0  0  0  0  0  0  0
   19.5010   16.8510    5.0490 C   0  0  1  0  0  0  0  0  0  0  0  0
   18.1190   14.0950    3.4920 C   0  0  0  0  0  0  0  0  0  0  0  0
   20.2096   14.2561    3.6813 H   0  0  0  0  0  0  0  0  0  0  0  0
   18.0830   12.7590    3.1000 C   0  0  0  0  0  0  0  0  0  0  0  0
   16.9870   14.7980    3.6560 N   0  0  0  0  0  0  0  0  0  0  0  0
   16.9350   12.0840    2.8310 N   0  0  0  0  0  0  0  0  0  0  0  0
   19.0372   12.2204    3.0028 H   0  0  0  0  0  0  0  0  0  0  0  0
   15.8380   14.1180    3.4060 C   0  0  0  0  0  0  0  0  0  0  0  0
   15.8030   12.7890    2.9870 C   0  0  0  0  0  0  0  0  0  0  0  0
   14.8822   14.6453    3.5417 H   0  0  0  0  0  0  0  0  0  0  0  0
   14.6080   12.1180    2.7450 N   0  0  0  0  0  0  0  0  0  0  0  0
   13.7100   12.6114    2.8498 H   0  0  0  0  0  0  0  0  0  0  0  0
   14.6216   11.1280    2.4611 H   0  0  0  0  0  0  0  0  0  0  0  0
   18.4520   17.8150    5.5620 C   0  0  0  0  0  0  0  0  0  0  0  0
   19.0400   15.4630    5.6870 N   0  0  2  0  0  4  0  0  0  0  0  0
   20.8870   17.0190    5.6310 C   0  0  0  0  0  0  0  0  0  0  0  0
   17.1960   16.9590    5.6410 C   0  0  0  0  0  0  0  0  0  0  0  0
   18.7262   18.2042    6.5536 H   0  0  0  0  0  0  0  0  0  0  0  0
   18.3298   18.6992    4.9191 H   0  0  0  0  0  0  0  0  0  0  0  0
   17.6710   15.6430    6.2310 C   0  0  0  0  0  0  0  0  0  0  0  0
   20.1510   15.0060    6.5710 C   0  0  0  0  0  0  0  0  0  0  0  0
   18.9113   14.6716    5.0405 H   0  0  0  0  0  0  0  0  0  0  0  0
   21.4180   15.6890    6.0810 C   0  0  0  0  0  0  0  0  0  0  0  0
   21.5000   18.0670    5.7770 O   0  0  0  0  0  0  0  0  0  0  0  0
   16.4451   17.4292    6.2930 H   0  0  0  0  0  0  0  0  0  0  0  0
   16.7153   16.8290    4.6601 H   0  0  0  0  0  0  0  0  0  0  0  0
   17.6931   15.6951    7.3295 H   0  0  0  0  0  0  0  0  0  0  0  0
   17.0058   14.8056    5.9737 H   0  0  0  0  0  0  0  0  0  0  0  0
   19.9465   15.2919    7.6133 H   0  0  0  0  0  0  0  0  0  0  0  0
   20.2560   13.9116    6.5359 H   0  0  0  0  0  0  0  0  0  0  0  0
   22.1522   15.8032    6.8921 H   0  0  0  0  0  0  0  0  0  0  0  0
   21.9534   15.1319    5.2980 H   0  0  0  0  0  0  0  0  0  0  0  0
  1  2  1  0
  2  3  2  0
  4  2  1  6
  1  5  1  0
  1  6  1  0
  5  7  2  0
  8  5  1  0
  7  9  1  0
  7 10  1  0
 11  8  2  0
  9 12  2  0
 11 12  1  0
 11 13  1  0
 12 14  1  0
 14 15  1  0
 14 16  1  0
 17  4  1  0
 18  4  1  0
 19  4  1  0
 20 17  1  0
 17 21  1  0
 17 22  1  0
 18 23  1  0
 24 18  1  0
 18 25  1  6
 19 26  1  0
 27 19  2  0
 23 20  1  0
 20 28  1  0
 20 29  1  0
 23 30  1  0
 23 31  1  0
 26 24  1  0
 24 32  1  0
 24 33  1  0
 26 34  1  0
 26 35  1  0
M  CHG  1  18   1
M  END
$$$$

     RDKit          3D

 31 31  0  0  0  0  0  0  0  0999 V2000
   19.3130   14.7560    3.7660 N   0  0  0  0  0  0  0  0  0  0  0  0
   19.6490   16.2790    3.6350 C   0  0  0  0  0  0  0  0  0  0  0  0
   19.5310   17.1520    2.7140 O   0  0  0  0  0  0  0  0  0  0  0  0
   19.7380   16.8970    5.0780 C   0  0  1  0  0  0  0  0  0  0  0  0
   18.1190   14.0950    3.4920 C   0  0  0  0  0  0  0  0  0  0  0  0
   20.2096   14.2561    3.6813 H   0  0  0  0  0  0  0  0  0  0  0  0
   18.0830   12.7590    3.1000 C   0  0  0  0  0  0  0  0  0  0  0  0
   16.9870   14.7980    3.6560 N   0  0  0  0  0  0  0  0  0  0  0  0
   16.9350   12.0840    2.8310 N   0  0  0  0  0  0  0  0  0  0  0  0
   19.0372   12.2204    3.0028 H   0  0  0  0  0  0  0  0  0  0  0  0
   15.8380   14.1180    3.4060 C   0  0  0  0  0  0  0  0  0  0  0  0
   15.8030   12.7890    2.9870 C   0  0  0  0  0  0  0  0  0  0  0  0
   14.8822   14.6453    3.5417 H   0  0  0  0  0  0  0  0  0  0  0  0
   14.6080   12.1180    2.7450 N   0  0  0  0  0  0  0  0  0  0  0  0
   13.7100   12.6114    2.8498 H   0  0  0  0  0  0  0  0  0  0  0  0
   14.6216   11.1280    2.4611 H   0  0  0  0  0  0  0  0  0  0  0  0
   20.8950   17.8180    5.1640 N   0  0  0  0  0  0  0  0  0  0  0  0
   18.4480   17.6260    5.4750 C   0  0  0  0  0  0  0  0  0  0  0  0
   19.8754   16.0669    5.7866 H   0  0  0  0  0  0  0  0  0  0  0  0
   22.0320   17.5270    5.8410 C   0  0  0  0  0  0  0  0  0  0  0  0
   20.8318   18.7272    4.6840 H   0  0  0  0  0  0  0  0  0  0  0  0
   17.3230   16.6750    5.8620 C   0  0  0  0  0  0  0  0  0  0  0  0
   18.6646   18.2803    6.3323 H   0  0  0  0  0  0  0  0  0  0  0  0
   18.1093   18.1974    4.5982 H   0  0  0  0  0  0  0  0  0  0  0  0
   22.2240   16.5790    6.5880 O   0  0  0  0  0  0  0  0  0  0  0  0
   22.9930   18.4670    5.6360 N   0  0  0  0  0  0  0  0  0  0  0  0
   17.2534   16.6162    6.9582 H   0  0  0  0  0  0  0  0  0  0  0  0
   16.3717   17.0469    5.4536 H   0  0  0  0  0  0  0  0  0  0  0  0
   17.5314   15.6751    5.4536 H   0  0  0  0  0  0  0  0  0  0  0  0
   23.9119   18.3719    6.0914 H   0  0  0  0  0  0  0  0  0  0  0  0
   22.8020   19.2741    5.0253 H   0  0  0  0  0  0  0  0  0  0  0  0
  1  2  1  0
  2  3  2  0
  2  4  1  0
  1  5  1  0
  1  6  1  0
  5  7  2  0
  8  5  1  0
  7  9  1  0
  7 10  1  0
 11  8  2  0
  9 12  2  0
 11 12  1  0
 11 13  1  0
 12 14  1  0
 14 15  1  0
 14 16  1  0
  4 17  1  0
 18  4  1  0
  4 19  1  1
 20 17  1  0
 17 21  1  0
 18 22  1  0
 18 23  1  0
 18 24  1  0
 25 20  2  0
 26 20  1  0
 22 27  1  0
 22 28  1  0
 22 29  1  0
 26 30  1  0
 26 31  1  0
M  END
$$$$

     RDKit          3D

 32 34  0  0  0  0  0  0  0  0999 V2000
   19.7670   17.3870    2.6260 N   0  0  0  0  0  0  0  0  0  0  0  0
   18.7590   15.6320    3.5070 C   0  0  0  0  0  0  0  0  0  0  0  0
   19.6390   14.7110    3.6060 O   0  0  0  0  0  0  0  0  0  0  0  0
   17.3210   15.2760    3.9470 C   0  0  0  0  0  0  0  0  0  0  0  0
   20.6450   17.4850    3.7190 C   0  0  0  0  0  0  0  0  0  0  0  0
   19.8659   18.0291    1.8268 H   0  0  0  0  0  0  0  0  0  0  0  0
   21.6660   18.4570    3.7360 C   0  0  0  0  0  0  0  0  0  0  0  0
   20.6300   16.6000    4.8400 C   0  0  0  0  0  0  0  0  0  0  0  0
   22.6090   18.5900    4.7860 C   0  0  0  0  0  0  0  0  0  0  0  0
   21.7348   19.1518    2.8860 H   0  0  0  0  0  0  0  0  0  0  0  0
   21.6360   16.7440    5.9530 C   0  0  0  0  0  0  0  0  0  0  0  0
   19.7610   15.5920    5.0390 N   0  0  0  0  0  0  0  0  0  0  0  0
   22.6250   17.7540    5.9150 C   0  0  0  0  0  0  0  0  0  0  0  0
   23.3646   19.3861    4.7133 H   0  0  0  0  0  0  0  0  0  0  0  0
   21.4750   15.8380    6.9310 N   0  0  0  0  0  0  0  0  0  0  0  0
   20.1850   14.8910    6.4840 S   0  0  0  0  0  0  0  0  0  0  0  0
   23.3629   17.8777    6.7214 H   0  0  0  0  0  0  0  0  0  0  0  0
   16.6900   16.0770    4.9030 C   0  0  0  0  0  0  0  0  0  0  0  0
   16.6730   14.1910    3.4130 N   0  0  0  0  0  0  0  0  0  0  0  0
   15.3960   15.7770    5.3150 C   0  0  0  0  0  0  0  0  0  0  0  0
   17.2164   16.9438    5.3291 H   0  0  0  0  0  0  0  0  0  0  0  0
   15.4100   13.9040    3.8190 C   0  0  0  0  0  0  0  0  0  0  0  0
   14.7460   14.6770    4.7690 C   0  0  0  0  0  0  0  0  0  0  0  0
   14.8923   16.4041    6.0654 H   0  0  0  0  0  0  0  0  0  0  0  0
   14.6950   12.7020    3.2240 C   0  0  0  0  0  0  0  0  0  0  0  0
   13.7231   14.4205    5.0819 H   0  0  0  0  0  0  0  0  0  0  0  0
   15.2220   12.3490    2.0050 F   0  0  0  0  0  0  0  0  0  0  0  0
   14.8580   11.5780    3.9970 F   0  0  0  0  0  0  0  0  0  0  0  0
   13.2000   12.8980    3.0260 C   0  0  0  0  0  0  0  0  0  0  0  0
   12.7057   12.9628    4.0065 H   0  0  0  0  0  0  0  0  0  0  0  0
   13.0232   13.8270    2.4641 H   0  0  0  0  0  0  0  0  0  0  0  0
   12.7897   12.0460    2.4641 H   0  0  0  0  0  0  0  0  0  0  0  0
  1  2  1  0
  2  3  2  0
  2  4  1  0
  1  5  1  0
  1  6  1  0
  7  5  2  0
  8  5  1  0
  9  7  1  0
  7 10  1  0
  8 11  1  0
 12  8  2  0
 13  9  2  0
  9 14  1  0
 11 13  1  0
 15 11  2  0
 16 12  1  0
 13 17  1  0
 15 16  1  0
 18  4  2  0
 19  4  1  0
 20 18  1  0
 18 21  1  0
 19 22  2  0
 23 20  2  0
 20 24  1  0
 22 23  1  0
 25 22  1  0
 23 26  1  0
 27 25  1  0
 28 25  1  0
 29 25  1  0
 29 30  1  0
 29 31  1  0
 29 32  1  0
M  END
$$$$

     RDKit          3D

 41 44  0  0  0  0  0  0  0  0999 V2000
   19.7670   17.3870    2.6260 N   0  0  0  0  0  0  0  0  0  0  0  0
   19.5760   15.9820    3.6740 C   0  0  0  0  0  0  0  0  0  0  0  0
   20.1760   14.8970    3.9170 O   0  0  0  0  0  0  0  0  0  0  0  0
   18.1090   15.8250    3.3030 C   0  0  0  0  0  0  0  0  0  0  0  0
   20.6450   17.4850    3.7190 C   0  0  0  0  0  0  0  0  0  0  0  0
   19.8659   18.0291    1.8268 H   0  0  0  0  0  0  0  0  0  0  0  0
   21.6660   18.4570    3.7360 C   0  0  0  0  0  0  0  0  0  0  0  0
   20.6300   16.6000    4.8400 C   0  0  0  0  0  0  0  0  0  0  0  0
   22.6090   18.5900    4.7860 C   0  0  0  0  0  0  0  0  0  0  0  0
   21.7348   19.1518    2.8860 H   0  0  0  0  0  0  0  0  0  0  0  0
   21.6360   16.7440    5.9530 C   0  0  0  0  0  0  0  0  0  0  0  0
   19.7610   15.5920    5.0390 N   0  0  0  0  0  0  0  0  0  0  0  0
   22.6250   17.7540    5.9150 C   0  0  0  0  0  0  0  0  0  0  0  0
   23.3646   19.3861    4.7133 H   0  0  0  0  0  0  0  0  0  0  0  0
   21.4750   15.8380    6.9310 N   0  0  0  0  0  0  0  0  0  0  0  0
   20.1850   14.8910    6.4840 S   0  0  0  0  0  0  0  0  0  0  0  0
   23.3629   17.8777    6.7214 H   0  0  0  0  0  0  0  0  0  0  0  0
   17.2730   15.1930    4.4110 C   0  0  1  0  0  0  0  0  0  0  0  0
   18.0409   15.1893    2.4079 H   0  0  0  0  0  0  0  0  0  0  0  0
   17.7072   16.8335    3.1253 H   0  0  0  0  0  0  0  0  0  0  0  0
   16.5230   16.3070    5.1810 C   0  0  0  0  0  0  0  0  0  0  0  0
   16.1160   14.3420    3.9130 C   0  0  0  0  0  0  0  0  0  0  0  0
   17.9960   14.5978    4.9881 H   0  0  0  0  0  0  0  0  0  0  0  0
   16.9950   17.2430    5.8090 O   0  0  0  0  0  0  0  0  0  0  0  0
   15.1610   16.0750    5.0440 N   0  0  0  0  0  0  0  0  0  0  0  0
   14.9130   14.9310    4.3090 C   0  0  0  0  0  0  0  0  0  0  0  0
   16.1000   13.1420    3.2110 C   0  0  0  0  0  0  0  0  0  0  0  0
   14.4274   16.6796    5.4404 H   0  0  0  0  0  0  0  0  0  0  0  0
   13.6740   14.4050    4.0050 C   0  0  0  0  0  0  0  0  0  0  0  0
   17.3540   12.4420    2.7860 C   0  0  0  0  0  0  0  0  0  0  0  0
   14.8420   12.6010    2.8760 C   0  0  0  0  0  0  0  0  0  0  0  0
   13.6340   13.2260    3.2550 C   0  0  0  0  0  0  0  0  0  0  0  0
   12.7493   14.8967    4.3414 H   0  0  0  0  0  0  0  0  0  0  0  0
   17.9180   12.1272    3.6764 H   0  0  0  0  0  0  0  0  0  0  0  0
   17.0948   11.5581    2.1847 H   0  0  0  0  0  0  0  0  0  0  0  0
   17.9703   13.1266    2.1847 H   0  0  0  0  0  0  0  0  0  0  0  0
   14.8003   11.6636    2.3020 H   0  0  0  0  0  0  0  0  0  0  0  0
   12.3210   12.5910    2.9070 C   0  0  0  0  0  0  0  0  0  0  0  0
   11.7832   12.3309    3.8307 H   0  0  0  0  0  0  0  0  0  0  0  0
   11.7172   13.2967    2.3175 H   0  0  0  0  0  0  0  0  0  0  0  0
   12.4993   11.6796    2.3175 H   0  0  0  0  0  0  0  0  0  0  0  0
  1  2  1  0
  2  3  2  0
  2  4  1  0
  1  5  1  0
  1  6  1  0
  7  5  2  0
  8  5  1  0
  9  7  1  0
  7 10  1  0
  8 11  1  0
 12  8  2  0
 13  9  2  0
  9 14  1  0
 11 13  1  0
 15 11  2  0
 16 12  1  0
 13 17  1  0
 15 16  1  0
  4 18  1  0
  4 19  1  0
  4 20  1  0
 21 18  1  0
 22 18  1  0
 18 23  1  1
 24 21  2  0
 25 21  1  0
 22 26  2  0
 27 22  1  0
 26 25  1  0
 25 28  1  0
 29 26  1  0
 30 27  1  0
 31 27  2  0
 29 32  2  0
 29 33  1  0
 30 34  1  0
 30 35  1  0
 30 36  1  0
 32 31  1  0
 31 37  1  0
 38 32  1  0
 38 39  1  0
 38 40  1  0
 38 41  1  0
M  END
$$$$

     RDKit          3D

 62 64  0  0  0  0  0  0  0  0999 V2000
   19.5160   15.3170    3.4460 N   0  0  0  0  0  4  0  0  0  0  0  0
   17.7490   14.2900    3.5680 C   0  0  0  0  0  0  0  0  0  0  0  0
   17.8370   13.0820    3.2070 O   0  0  0  0  0  0  0  0  0  0  0  0
   16.4360   14.9400    3.5680 C   0  0  1  0  0  0  0  0  0  0  0  0
   20.1400   15.3590    4.7740 C   0  0  1  0  0  0  0  0  0  0  0  0
   19.7519   16.1758    2.9285 H   0  0  0  0  0  0  0  0  0  0  0  0
   19.8648   14.4976    2.9285 H   0  0  0  0  0  0  0  0  0  0  0  0
   21.6790   15.4960    4.7420 C   0  0  0  0  0  0  0  0  0  0  0  0
   20.1000   16.7530    5.4350 C   0  0  0  0  0  0  0  0  0  0  0  0
   19.6460   14.4856    5.2247 H   0  0  0  0  0  0  0  0  0  0  0  0
   21.5320   16.4440    5.9690 C   0  0  2  0  0  0  0  0  0  0  0  0
   22.2295   14.5648    4.9415 H   0  0  0  0  0  0  0  0  0  0  0  0
   22.2207   15.7959    3.8328 H   0  0  0  0  0  0  0  0  0  0  0  0
   20.0420   17.5961    4.7309 H   0  0  0  0  0  0  0  0  0  0  0  0
   19.2810   17.0607    6.1018 H   0  0  0  0  0  0  0  0  0  0  0  0
   22.4680   17.6400    6.0020 C   0  0  0  0  0  0  0  0  0  0  0  0
   21.5370   15.7680    7.2400 O   0  0  0  0  0  0  0  0  0  0  0  0
   22.6800   17.9109    7.0468 H   0  0  0  0  0  0  0  0  0  0  0  0
   23.4082   17.3840    5.4915 H   0  0  0  0  0  0  0  0  0  0  0  0
   21.9936   18.4911    5.4915 H   0  0  0  0  0  0  0  0  0  0  0  0
   21.5321   16.4371    7.9697 H   0  0  0  0  0  0  0  0  0  0  0  0
   15.4160   14.0860    4.3590 C   0  0  1  0  0  0  0  0  0  0  0  0
   15.6540   15.5280    4.7210 C   0  0  0  0  0  0  0  0  0  0  0  0
   16.6501   15.4040    2.5939 H   0  0  0  0  0  0  0  0  0  0  0  0
   14.3870   13.4630    3.4920 C   0  0  0  0  0  0  0  0  0  0  0  0
   15.3186   13.2242    5.0357 H   0  0  0  0  0  0  0  0  0  0  0  0
   14.5800   16.5360    4.3990 C   0  0  0  0  0  0  0  0  0  0  0  0
   16.3890   15.8200    6.0050 C   0  0  0  0  0  0  0  0  0  0  0  0
   13.1230   13.7230    3.9730 N   0  0  0  0  0  0  0  0  0  0  0  0
   14.7090   12.8330    2.4940 O   0  0  0  0  0  0  0  0  0  0  0  0
   14.1573   16.9327    5.3339 H   0  0  0  0  0  0  0  0  0  0  0  0
   15.0142   17.3602    3.8141 H   0  0  0  0  0  0  0  0  0  0  0  0
   13.7849   16.0505    3.8141 H   0  0  0  0  0  0  0  0  0  0  0  0
   15.7471   15.5650    6.8611 H   0  0  0  0  0  0  0  0  0  0  0  0
   17.3096   15.2193    6.0452 H   0  0  0  0  0  0  0  0  0  0  0  0
   16.6464   16.8887    6.0452 H   0  0  0  0  0  0  0  0  0  0  0  0
   11.8900   13.3000    3.4570 C   0  0  0  0  0  0  0  0  0  0  0  0
   13.0776   14.3038    4.8224 H   0  0  0  0  0  0  0  0  0  0  0  0
   11.9010   12.1610    2.6430 C   0  0  0  0  0  0  0  0  0  0  0  0
   10.6830   13.9470    3.7000 C   0  0  0  0  0  0  0  0  0  0  0  0
   10.7220   11.6790    2.0610 C   0  0  0  0  0  0  0  0  0  0  0  0
   12.8501   11.6367    2.4578 H   0  0  0  0  0  0  0  0  0  0  0  0
    9.5040   13.4710    3.1010 C   0  0  0  0  0  0  0  0  0  0  0  0
   10.6513   14.8277    4.3583 H   0  0  0  0  0  0  0  0  0  0  0  0
    9.5070   12.3290    2.2880 C   0  0  0  0  0  0  0  0  0  0  0  0
   10.7531   10.7842    1.4220 H   0  0  0  0  0  0  0  0  0  0  0  0
    8.2460   14.1940    3.3800 C   0  0  0  0  0  0  0  0  0  0  0  0
    8.3180   11.9540    1.7200 O   0  0  0  0  0  0  0  0  0  0  0  0
    7.9400   15.1270    2.6400 O   0  0  0  0  0  0  0  0  0  0  0  0
    7.4530   13.7550    4.4440 N   0  0  0  0  0  0  0  0  0  0  0  0
    8.3630   10.8410    0.8360 C   0  0  0  0  0  0  0  0  0  0  0  0
    6.1190   14.3050    4.5870 C   0  0  0  0  0  0  0  0  0  0  0  0
    7.7830   12.6230    5.2990 C   0  0  0  0  0  0  0  0  0  0  0  0
    8.4006    9.9099    1.4204 H   0  0  0  0  0  0  0  0  0  0  0  0
    7.4642   10.8398    0.2019 H   0  0  0  0  0  0  0  0  0  0  0  0
    9.2590   10.9124    0.2019 H   0  0  0  0  0  0  0  0  0  0  0  0
    5.8762   14.4051    5.6552 H   0  0  0  0  0  0  0  0  0  0  0  0
    6.0767   15.2939    4.1071 H   0  0  0  0  0  0  0  0  0  0  0  0
    5.3920   13.6332    4.1071 H   0  0  0  0  0  0  0  0  0  0  0  0
    7.6957   12.9225    6.3538 H   0  0  0  0  0  0  0  0  0  0  0  0
    7.0890   11.7944    5.0944 H   0  0  0  0  0  0  0  0  0  0  0  0
    8.8135   12.2971    5.0944 H   0  0  0  0  0  0  0  0  0  0  0  0
  1  2  1  0
  2  3  2  0
  2  4  1  0
  1  5  1  0
  1  6  1  0
  1  7  1  0
  8  5  1  0
  9  5  1  0
  5 10  1  1
 11  8  1  0
  8 12  1  0
  8 13  1  0
  9 11  1  0
  9 14  1  0
  9 15  1  0
 16 11  1  0
 11 17  1  1
 16 18  1  0
 16 19  1  0
 16 20  1  0
 17 21  1  0
  4 22  1  0
 23  4  1  0
  4 24  1  6
 22 25  1  0
 23 22  1  0
 22 26  1  1
 27 23  1  0
 28 23  1  0
 25 29  1  0
 30 25  2  0
 27 31  1  0
 27 32  1  0
 27 33  1  0
 28 34  1  0
 28 35  1  0
 28 36  1  0
 29 37  1  0
 29 38  1  0
 37 39  2  0
 40 37  1  0
 39 41  1  0
 39 42  1  0
 43 40  2  0
 40 44  1  0
 41 45  2  0
 41 46  1  0
 43 45  1  0
 47 43  1  0
 48 45  1  0
 49 47  2  0
 50 47  1  0
 48 51  1  0
 52 50  1  0
 53 50  1  0
 51 54  1  0
 51 55  1  0
 51 56  1  0
 52 57  1  0
 52 58  1  0
 52 59  1  0
 53 60  1  0
 53 61  1  0
 53 62  1  0
M  CHG  1   1   1
M  END
$$$$

     RDKit          3D

 52 53  0  0  0  0  0  0  0  0999 V2000
   19.5160   15.3170    3.4460 N   0  0  0  0  0  4  0  0  0  0  0  0
   19.3300   16.8770    2.9110 C   0  0  0  0  0  0  0  0  0  0  0  0
   19.4120   17.8700    2.1160 O   0  0  0  0  0  0  0  0  0  0  0  0
   18.8980   17.3580    4.3230 C   0  0  0  0  0  0  0  0  0  0  0  0
   20.1400   15.3590    4.7740 C   0  0  1  0  0  0  0  0  0  0  0  0
   18.4935   15.2482    3.5491 H   0  0  0  0  0  0  0  0  0  0  0  0
   19.8648   14.4976    2.9285 H   0  0  0  0  0  0  0  0  0  0  0  0
   21.6790   15.4960    4.7420 C   0  0  0  0  0  0  0  0  0  0  0  0
   20.1000   16.7530    5.4350 C   0  0  0  0  0  0  0  0  0  0  0  0
   19.6460   14.4856    5.2247 H   0  0  0  0  0  0  0  0  0  0  0  0
   21.5320   16.4440    5.9690 C   0  0  2  0  0  0  0  0  0  0  0  0
   22.2295   14.5648    4.9415 H   0  0  0  0  0  0  0  0  0  0  0  0
   22.2207   15.7959    3.8328 H   0  0  0  0  0  0  0  0  0  0  0  0
   20.0420   17.5961    4.7309 H   0  0  0  0  0  0  0  0  0  0  0  0
   19.2810   17.0607    6.1018 H   0  0  0  0  0  0  0  0  0  0  0  0
   22.4680   17.6400    6.0020 C   0  0  0  0  0  0  0  0  0  0  0  0
   21.5370   15.7680    7.2400 O   0  0  0  0  0  0  0  0  0  0  0  0
   22.6800   17.9109    7.0468 H   0  0  0  0  0  0  0  0  0  0  0  0
   23.4082   17.3840    5.4915 H   0  0  0  0  0  0  0  0  0  0  0  0
   21.9936   18.4911    5.4915 H   0  0  0  0  0  0  0  0  0  0  0  0
   21.5321   16.4371    7.9697 H   0  0  0  0  0  0  0  0  0  0  0  0
   18.0260   16.2680    5.0150 N   0  0  2  0  0  4  0  0  0  0  0  0
   18.3142   18.2856    4.2288 H   0  0  0  0  0  0  0  0  0  0  0  0
   19.7957   17.5416    4.9316 H   0  0  0  0  0  0  0  0  0  0  0  0
   16.6430   16.6920    5.3650 C   0  0  0  0  0  0  0  0  0  0  0  0
   18.7710   15.5490    6.0810 C   0  0  0  0  0  0  0  0  0  0  0  0
   17.8390   15.5573    4.2934 H   0  0  0  0  0  0  0  0  0  0  0  0
   15.6480   15.5350    5.3340 C   0  0  0  0  0  0  0  0  0  0  0  0
   16.3163   17.4568    4.6450 H   0  0  0  0  0  0  0  0  0  0  0  0
   16.6652   17.0845    6.3924 H   0  0  0  0  0  0  0  0  0  0  0  0
   18.4195   15.8882    7.0666 H   0  0  0  0  0  0  0  0  0  0  0  0
   18.5988   14.4670    5.9827 H   0  0  0  0  0  0  0  0  0  0  0  0
   19.8462   15.7595    5.9827 H   0  0  0  0  0  0  0  0  0  0  0  0
   14.8650   15.4490    4.0200 C   0  0  0  0  0  0  0  0  0  0  0  0
   16.2008   14.5944    5.4740 H   0  0  0  0  0  0  0  0  0  0  0  0
   14.9187   15.7087    6.1389 H   0  0  0  0  0  0  0  0  0  0  0  0
   14.3540   14.0710    3.7730 C   0  0  0  0  0  0  0  0  0  0  0  0
   14.0124   16.1425    4.0668 H   0  0  0  0  0  0  0  0  0  0  0  0
   15.5447   15.7157    3.1973 H   0  0  0  0  0  0  0  0  0  0  0  0
   13.0360   13.5700    3.9680 C   0  0  0  0  0  0  0  0  0  0  0  0
   15.0660   12.9860    3.2940 C   0  0  0  0  0  0  0  0  0  0  0  0
   11.8460   14.2950    4.4760 C   0  0  0  0  0  0  0  0  0  0  0  0
   12.9390   12.2800    3.6290 N   0  0  0  0  0  0  0  0  0  0  0  0
   14.1770   11.9500    3.2330 N   0  0  0  0  0  0  0  0  0  0  0  0
   16.4880   12.8350    2.8960 C   0  0  0  0  0  0  0  0  0  0  0  0
   11.8552   14.2894    5.5759 H   0  0  0  0  0  0  0  0  0  0  0  0
   11.8674   15.3336    4.1144 H   0  0  0  0  0  0  0  0  0  0  0  0
   10.9328   13.7996    4.1144 H   0  0  0  0  0  0  0  0  0  0  0  0
   14.4335   11.0051    2.9132 H   0  0  0  0  0  0  0  0  0  0  0  0
   17.1158   12.7683    3.7968 H   0  0  0  0  0  0  0  0  0  0  0  0
   16.6062   11.9193    2.2981 H   0  0  0  0  0  0  0  0  0  0  0  0
   16.7958   13.7055    2.2981 H   0  0  0  0  0  0  0  0  0  0  0  0
  1  2  1  0
  2  3  2  0
  2  4  1  0
  1  5  1  0
  1  6  1  0
  1  7  1  0
  8  5  1  0
  9  5  1  0
  5 10  1  1
 11  8  1  0
  8 12  1  0
  8 13  1  0
  9 11  1  0
  9 14  1  0
  9 15  1  0
 16 11  1  0
 11 17  1  1
 16 18  1  0
 16 19  1  0
 16 20  1  0
 17 21  1  0
  4 22  1  0
  4 23  1  0
  4 24  1  0
 22 25  1  0
 26 22  1  0
 22 27  1  6
 25 28  1  0
 25 29  1  0
 25 30  1  0
 26 31  1  0
 26 32  1  0
 26 33  1  0
 34 28  1  0
 28 35  1  0
 28 36  1  0
 37 34  1  0
 34 38  1  0
 34 39  1  0
 40 37  1  0
 41 37  2  0
 42 40  1  0
 43 40  2  0
 41 44  1  0
 45 41  1  0
 42 46  1  0
 42 47  1  0
 42 48  1  0
 44 43  1  0
 44 49  1  0
 45 50  1  0
 45 51  1  0
 45 52  1  0
M  CHG  2   1   1  22   1
M  END
$$$$

     RDKit          3D

 37 39  0  0  0  0  0  0  0  0999 V2000
   18.0690   14.6070    3.8320 N   0  0  0  0  0  0  0  0  0  0  0  0
   18.7650   14.8820    4.3360 C   0  0  0  0  0  0  0  0  0  0  0  0
   19.1330   14.1260    3.3880 O   0  0  0  0  0  0  0  0  0  0  0  0
   19.8960   15.5210    5.1630 C   0  0  0  0  0  0  0  0  0  0  0  0
   16.7490   14.1360    3.6330 C   0  0  0  0  0  0  0  0  0  0  0  0
   18.2280   15.5152    4.2912 H   0  0  0  0  0  0  0  0  0  0  0  0
   16.5900   12.8780    2.9950 C   0  0  0  0  0  0  0  0  0  0  0  0
   15.6330   14.7600    4.2110 C   0  0  0  0  0  0  0  0  0  0  0  0
   15.3100   12.3750    2.7480 C   0  0  0  0  0  0  0  0  0  0  0  0
   17.7170   12.2300    2.4410 N   0  0  0  0  0  0  0  0  0  0  0  0
   14.3730   14.1850    4.0200 C   0  0  0  0  0  0  0  0  0  0  0  0
   15.7050   16.0130    5.0230 C   0  0  0  0  0  0  0  0  0  0  0  0
   14.2000   13.0220    3.2760 C   0  0  0  0  0  0  0  0  0  0  0  0
   15.1817   11.4692    2.1372 H   0  0  0  0  0  0  0  0  0  0  0  0
   18.6623   12.5975    2.6206 H   0  0  0  0  0  0  0  0  0  0  0  0
   17.5931   11.3902    1.8576 H   0  0  0  0  0  0  0  0  0  0  0  0
   13.2870   14.7600    4.5550 F   0  0  0  0  0  0  0  0  0  0  0  0
   14.7220   16.9100    4.7240 F   0  0  0  0  0  0  0  0  0  0  0  0
   16.8700   16.7130    4.8540 F   0  0  0  0  0  0  0  0  0  0  0  0
   15.6090   15.7850    6.3620 F   0  0  0  0  0  0  0  0  0  0  0  0
   13.1910   12.6177    3.1071 H   0  0  0  0  0  0  0  0  0  0  0  0
   20.2710   15.0480    6.4000 C   0  0  0  0  0  0  0  0  0  0  0  0
   20.7190   16.5890    4.8880 N   0  0  0  0  0  0  0  0  0  0  0  0
   21.3480   15.7310    6.8920 N   0  0  0  0  0  0  0  0  0  0  0  0
   19.7673   14.2239    6.9265 H   0  0  0  0  0  0  0  0  0  0  0  0
   21.6150   16.6360    5.9730 C   0  0  0  0  0  0  0  0  0  0  0  0
   20.7630   17.5440    3.8430 C   0  0  0  0  0  0  0  0  0  0  0  0
   22.6340   17.6270    5.9600 C   0  0  0  0  0  0  0  0  0  0  0  0
   19.7410   17.5510    2.7470 C   0  0  0  0  0  0  0  0  0  0  0  0
   21.7270   18.4900    3.8750 C   0  0  0  0  0  0  0  0  0  0  0  0
   22.6950   18.5130    4.9530 C   0  0  0  0  0  0  0  0  0  0  0  0
   23.3722   17.6680    6.7745 H   0  0  0  0  0  0  0  0  0  0  0  0
   18.7325   17.5579    3.1861 H   0  0  0  0  0  0  0  0  0  0  0  0
   19.8763   18.4482    2.1252 H   0  0  0  0  0  0  0  0  0  0  0  0
   19.8640   16.6520    2.1252 H   0  0  0  0  0  0  0  0  0  0  0  0
   21.7773   19.2469    3.0784 H   0  0  0  0  0  0  0  0  0  0  0  0
   23.4936   19.2694    4.9462 H   0  0  0  0  0  0  0  0  0  0  0  0
  1  2  1  0
  2  3  2  0
  2  4  1  0
  1  5  1  0
  1  6  1  0
  5  7  2  0
  8  5  1  0
  7  9  1  0
 10  7  1  0
  8 11  2  0
 12  8  1  0
  9 13  2  0
  9 14  1  0
 10 15  1  0
 10 16  1  0
 11 17  1  0
 13 11  1  0
 18 12  1  0
 19 12  1  0
 20 12  1  0
 13 21  1  0
 22  4  2  0
 23  4  1  0
 24 22  1  0
 22 25  1  0
 23 26  1  0
 27 23  1  0
 26 24  2  0
 28 26  1  0
 29 27  1  0
 30 27  2  0
 28 31  2  0
 28 32  1  0
 29 33  1  0
 29 34  1  0
 29 35  1  0
 31 30  1  0
 30 36  1  0
 31 37  1  0
M  END
$$$$

     RDKit          3D

 37 39  0  0  0  0  0  0  0  0999 V2000
   17.7960   14.6140    3.8580 N   0  0  0  0  0  0  0  0  0  0  0  0
   18.5070   14.9400    3.6290 C   0  0  0  0  0  0  0  0  0  0  0  0
   18.9090   13.7860    3.2700 O   0  0  0  0  0  0  0  0  0  0  0  0
   19.5760   15.9820    3.8600 C   0  0  0  0  0  0  0  0  0  0  0  0
   16.3940   14.5320    3.7980 C   0  0  0  0  0  0  0  0  0  0  0  0
   18.2453   15.3330    4.4428 H   0  0  0  0  0  0  0  0  0  0  0  0
   15.6000   15.4360    4.5400 C   0  0  0  0  0  0  0  0  0  0  0  0
   15.7790   13.4200    3.1780 C   0  0  0  0  0  0  0  0  0  0  0  0
   14.2030   15.2890    4.5630 C   0  0  0  0  0  0  0  0  0  0  0  0
   16.2160   16.5780    5.3070 C   0  0  0  0  0  0  0  0  0  0  0  0
   14.3790   13.2840    3.2090 C   0  0  0  0  0  0  0  0  0  0  0  0
   16.5880   12.3680    2.4650 C   0  0  0  0  0  0  0  0  0  0  0  0
   13.6010   14.2210    3.8930 C   0  0  0  0  0  0  0  0  0  0  0  0
   13.5828   16.0152    5.1089 H   0  0  0  0  0  0  0  0  0  0  0  0
   16.1153   16.3913    6.3864 H   0  0  0  0  0  0  0  0  0  0  0  0
   17.2816   16.6617    5.0472 H   0  0  0  0  0  0  0  0  0  0  0  0
   15.7006   17.5144    5.0472 H   0  0  0  0  0  0  0  0  0  0  0  0
   13.8970   12.4396    2.6945 H   0  0  0  0  0  0  0  0  0  0  0  0
   17.0841   11.7229    3.2051 H   0  0  0  0  0  0  0  0  0  0  0  0
   15.9233   11.7590    1.8347 H   0  0  0  0  0  0  0  0  0  0  0  0
   17.3473   12.8540    1.8347 H   0  0  0  0  0  0  0  0  0  0  0  0
   12.1400   14.0710    3.9220 N   0  0  0  0  0  4  0  0  0  0  0  0
   11.4820   14.9390    4.5170 O   0  0  0  0  0  1  0  0  0  0  0  0
   11.6470   13.0900    3.3480 O   0  0  0  0  0  0  0  0  0  0  0  0
   20.4100   15.8720    4.9980 C   0  0  0  0  0  0  0  0  0  0  0  0
   19.7720   17.0580    2.9840 C   0  0  0  0  0  0  0  0  0  0  0  0
   21.3870   16.8450    5.1880 C   0  0  0  0  0  0  0  0  0  0  0  0
   20.2898   15.0428    5.7107 H   0  0  0  0  0  0  0  0  0  0  0  0
   20.7670   18.0270    3.1980 C   0  0  0  0  0  0  0  0  0  0  0  0
   19.0180   17.2230    1.8880 F   0  0  0  0  0  0  0  0  0  0  0  0
   22.2740   16.8960    6.2210 O   0  0  0  0  0  0  0  0  0  0  0  0
   21.5920   17.9160    4.3270 C   0  0  0  0  0  0  0  0  0  0  0  0
   20.8969   18.8597    2.4911 H   0  0  0  0  0  0  0  0  0  0  0  0
   23.0460   17.9980    6.0250 C   0  0  0  0  0  0  0  0  0  0  0  0
   22.6690   18.6580    4.8780 C   0  0  0  0  0  0  0  0  0  0  0  0
   23.8602   18.3180    6.6919 H   0  0  0  0  0  0  0  0  0  0  0  0
   23.1137   19.5774    4.4696 H   0  0  0  0  0  0  0  0  0  0  0  0
  1  2  1  0
  2  3  2  0
  2  4  1  0
  1  5  1  0
  1  6  1  0
  5  7  2  0
  8  5  1  0
  7  9  1  0
 10  7  1  0
 11  8  2  0
 12  8  1  0
  9 13  2  0
  9 14  1  0
 10 15  1  0
 10 16  1  0
 10 17  1  0
 11 13  1  0
 11 18  1  0
 12 19  1  0
 12 20  1  0
 12 21  1  0
 22 13  1  0
 22 23  1  0
 24 22  2  0
 25  4  2  0
 26  4  1  0
 27 25  1  0
 25 28  1  0
 26 29  2  0
 30 26  1  0
 31 27  1  0
 32 27  2  0
 29 32  1  0
 29 33  1  0
 34 31  1  0
 32 35  1  0
 35 34  2  0
 34 36  1  0
 35 37  1  0
M  CHG  2  22   1  23  -1
M  END
$$$$

     RDKit          3D

 38 38  0  0  0  0  0  0  0  0999 V2000
   17.7960   14.6140    3.8580 N   0  0  0  0  0  0  0  0  0  0  0  0
   18.7120   15.5750    3.8970 C   0  0  0  0  0  0  0  0  0  0  0  0
   19.8810   15.1480    3.6920 O   0  0  0  0  0  0  0  0  0  0  0  0
   18.5910   16.9200    4.6210 C   0  0  0  0  0  0  0  0  0  0  0  0
   16.3940   14.5320    3.7980 C   0  0  0  0  0  0  0  0  0  0  0  0
   18.3740   13.9550    3.3171 H   0  0  0  0  0  0  0  0  0  0  0  0
   15.6000   15.4360    4.5400 C   0  0  0  0  0  0  0  0  0  0  0  0
   15.7790   13.4200    3.1780 C   0  0  0  0  0  0  0  0  0  0  0  0
   14.2030   15.2890    4.5630 C   0  0  0  0  0  0  0  0  0  0  0  0
   16.2160   16.5780    5.3070 C   0  0  0  0  0  0  0  0  0  0  0  0
   14.3790   13.2840    3.2090 C   0  0  0  0  0  0  0  0  0  0  0  0
   16.5880   12.3680    2.4650 C   0  0  0  0  0  0  0  0  0  0  0  0
   13.6010   14.2210    3.8930 C   0  0  0  0  0  0  0  0  0  0  0  0
   13.5828   16.0152    5.1089 H   0  0  0  0  0  0  0  0  0  0  0  0
   16.1153   16.3913    6.3864 H   0  0  0  0  0  0  0  0  0  0  0  0
   17.2816   16.6617    5.0472 H   0  0  0  0  0  0  0  0  0  0  0  0
   15.7006   17.5144    5.0472 H   0  0  0  0  0  0  0  0  0  0  0  0
   13.8970   12.4396    2.6945 H   0  0  0  0  0  0  0  0  0  0  0  0
   17.0841   11.7229    3.2051 H   0  0  0  0  0  0  0  0  0  0  0  0
   15.9233   11.7590    1.8347 H   0  0  0  0  0  0  0  0  0  0  0  0
   17.3473   12.8540    1.8347 H   0  0  0  0  0  0  0  0  0  0  0  0
   12.1400   14.0710    3.9220 N   0  0  0  0  0  4  0  0  0  0  0  0
   11.4820   14.9390    4.5170 O   0  0  0  0  0  1  0  0  0  0  0  0
   11.6470   13.0900    3.3480 O   0  0  0  0  0  0  0  0  0  0  0  0
   19.6390   17.9550    4.2260 C   0  0  0  0  0  0  0  0  0  0  0  0
   18.6817   16.7363    5.7018 H   0  0  0  0  0  0  0  0  0  0  0  0
   17.6163   17.3405    4.3327 H   0  0  0  0  0  0  0  0  0  0  0  0
   20.5700   18.2870    5.3920 C   0  0  0  0  0  0  0  0  0  0  0  0
   19.1287   18.8746    3.9038 H   0  0  0  0  0  0  0  0  0  0  0  0
   20.2459   17.5357    3.4100 H   0  0  0  0  0  0  0  0  0  0  0  0
   21.9520   17.6770    5.1780 C   0  0  0  0  0  0  0  0  0  0  0  0
   20.1397   17.8860    6.3215 H   0  0  0  0  0  0  0  0  0  0  0  0
   20.6752   19.3800    5.4566 H   0  0  0  0  0  0  0  0  0  0  0  0
   22.3740   16.9600    6.3900 N   0  0  0  0  0  0  0  0  0  0  0  0
   21.9138   16.9741    4.3327 H   0  0  0  0  0  0  0  0  0  0  0  0
   22.6730   18.4790    4.9614 H   0  0  0  0  0  0  0  0  0  0  0  0
   21.6120   16.0560    6.7760 N   0  0  0  0  0  4  0  0  0  0  0  0
   20.9250   15.2200    7.1350 N   0  0  0  0  0  2  0  0  0  0  0  0
  1  2  1  0
  2  3  2  0
  2  4  1  0
  1  5  1  0
  1  6  1  0
  5  7  2  0
  8  5  1  0
  7  9  1  0
 10  7  1  0
 11  8  2  0
 12  8  1  0
  9 13  2  0
  9 14  1  0
 10 15  1  0
 10 16  1  0
 10 17  1  0
 11 13  1  0
 11 18  1  0
 12 19  1  0
 12 20  1  0
 12 21  1  0
 22 13  1  0
 22 23  1  0
 24 22  2  0
  4 25  1  0
  4 26  1  0
  4 27  1  0
 25 28  1  0
 25 29  1  0
 25 30  1  0
 31 28  1  0
 28 32  1  0
 28 33  1  0
 34 31  1  0
 31 35  1  0
 31 36  1  0
 34 37  2  0
 37 38  2  0
M  CHG  4  22   1  23  -1  37   1  38  -1
M  END
$$$$

     RDKit          3D

 40 42  0  0  0  0  0  0  0  0999 V2000
   17.7960   14.6140    3.8580 N   0  0  0  0  0  0  0  0  0  0  0  0
   18.7650   14.8820    4.3360 C   0  0  0  0  0  0  0  0  0  0  0  0
   19.1330   14.1260    3.3880 O   0  0  0  0  0  0  0  0  0  0  0  0
   19.8960   15.5210    5.1630 C   0  0  0  0  0  0  0  0  0  0  0  0
   16.3940   14.5320    3.7980 C   0  0  0  0  0  0  0  0  0  0  0  0
   18.2453   15.3330    4.4428 H   0  0  0  0  0  0  0  0  0  0  0  0
   15.6000   15.4360    4.5400 C   0  0  0  0  0  0  0  0  0  0  0  0
   15.7790   13.4200    3.1780 C   0  0  0  0  0  0  0  0  0  0  0  0
   14.2030   15.2890    4.5630 C   0  0  0  0  0  0  0  0  0  0  0  0
   16.2160   16.5780    5.3070 C   0  0  0  0  0  0  0  0  0  0  0  0
   14.3790   13.2840    3.2090 C   0  0  0  0  0  0  0  0  0  0  0  0
   16.5880   12.3680    2.4650 C   0  0  0  0  0  0  0  0  0  0  0  0
   13.6010   14.2210    3.8930 C   0  0  0  0  0  0  0  0  0  0  0  0
   13.5828   16.0152    5.1089 H   0  0  0  0  0  0  0  0  0  0  0  0
   16.1153   16.3913    6.3864 H   0  0  0  0  0  0  0  0  0  0  0  0
   17.2816   16.6617    5.0472 H   0  0  0  0  0  0  0  0  0  0  0  0
   15.7006   17.5144    5.0472 H   0  0  0  0  0  0  0  0  0  0  0  0
   13.8970   12.4396    2.6945 H   0  0  0  0  0  0  0  0  0  0  0  0
   17.0841   11.7229    3.2051 H   0  0  0  0  0  0  0  0  0  0  0  0
   15.9233   11.7590    1.8347 H   0  0  0  0  0  0  0  0  0  0  0  0
   17.3473   12.8540    1.8347 H   0  0  0  0  0  0  0  0  0  0  0  0
   12.1400   14.0710    3.9220 N   0  0  0  0  0  4  0  0  0  0  0  0
   11.4820   14.9390    4.5170 O   0  0  0  0  0  1  0  0  0  0  0  0
   11.6470   13.0900    3.3480 O   0  0  0  0  0  0  0  0  0  0  0  0
   20.2710   15.0480    6.4000 C   0  0  0  0  0  0  0  0  0  0  0  0
   20.7190   16.5890    4.8880 N   0  0  0  0  0  0  0  0  0  0  0  0
   21.3480   15.7310    6.8920 N   0  0  0  0  0  0  0  0  0  0  0  0
   19.7673   14.2239    6.9265 H   0  0  0  0  0  0  0  0  0  0  0  0
   21.6150   16.6360    5.9730 C   0  0  0  0  0  0  0  0  0  0  0  0
   20.7630   17.5440    3.8430 C   0  0  0  0  0  0  0  0  0  0  0  0
   22.6340   17.6270    5.9600 C   0  0  0  0  0  0  0  0  0  0  0  0
   19.7410   17.5510    2.7470 C   0  0  0  0  0  0  0  0  0  0  0  0
   21.7270   18.4900    3.8750 C   0  0  0  0  0  0  0  0  0  0  0  0
   22.6950   18.5130    4.9530 C   0  0  0  0  0  0  0  0  0  0  0  0
   23.3722   17.6680    6.7745 H   0  0  0  0  0  0  0  0  0  0  0  0
   18.7325   17.5579    3.1861 H   0  0  0  0  0  0  0  0  0  0  0  0
   19.8763   18.4482    2.1252 H   0  0  0  0  0  0  0  0  0  0  0  0
   19.8640   16.6520    2.1252 H   0  0  0  0  0  0  0  0  0  0  0  0
   21.7773   19.2469    3.0784 H   0  0  0  0  0  0  0  0  0  0  0  0
   23.4936   19.2694    4.9462 H   0  0  0  0  0  0  0  0  0  0  0  0
  1  2  1  0
  2  3  2  0
  2  4  1  0
  1  5  1  0
  1  6  1  0
  5  7  2  0
  8  5  1  0
  7  9  1  0
 10  7  1  0
 11  8  2  0
 12  8  1  0
  9 13  2  0
  9 14  1  0
 10 15  1  0
 10 16  1  0
 10 17  1  0
 11 13  1  0
 11 18  1  0
 12 19  1  0
 12 20  1  0
 12 21  1  0
 22 13  1  0
 22 23  1  0
 24 22  2  0
 25  4  2  0
 26  4  1  0
 27 25  1  0
 25 28  1  0
 26 29  1  0
 30 26  1  0
 29 27  2  0
 31 29  1  0
 32 30  1  0
 33 30  2  0
 31 34  2  0
 31 35  1  0
 32 36  1  0
 32 37  1  0
 32 38  1  0
 34 33  1  0
 33 39  1  0
 34 40  1  0
M  CHG  2  22   1  23  -1
M  END
$$$$

     RDKit          3D

 37 39  0  0  0  0  0  0  0  0999 V2000
   17.7960   14.6140    3.8580 N   0  0  0  0  0  0  0  0  0  0  0  0
   18.6420   14.9750    3.6490 C   0  0  0  0  0  0  0  0  0  0  0  0
   18.9300   13.8050    3.2430 O   0  0  0  0  0  0  0  0  0  0  0  0
   19.7680   15.9070    3.8370 C   0  0  2  0  0  0  0  0  0  0  0  0
   16.3940   14.5320    3.7980 C   0  0  0  0  0  0  0  0  0  0  0  0
   18.2453   15.3330    4.4428 H   0  0  0  0  0  0  0  0  0  0  0  0
   15.6000   15.4360    4.5400 C   0  0  0  0  0  0  0  0  0  0  0  0
   15.7790   13.4200    3.1780 C   0  0  0  0  0  0  0  0  0  0  0  0
   14.2030   15.2890    4.5630 C   0  0  0  0  0  0  0  0  0  0  0  0
   16.2160   16.5780    5.3070 C   0  0  0  0  0  0  0  0  0  0  0  0
   14.3790   13.2840    3.2090 C   0  0  0  0  0  0  0  0  0  0  0  0
   16.5880   12.3680    2.4650 C   0  0  0  0  0  0  0  0  0  0  0  0
   13.6010   14.2210    3.8930 C   0  0  0  0  0  0  0  0  0  0  0  0
   13.5828   16.0152    5.1089 H   0  0  0  0  0  0  0  0  0  0  0  0
   16.1153   16.3913    6.3864 H   0  0  0  0  0  0  0  0  0  0  0  0
   17.2816   16.6617    5.0472 H   0  0  0  0  0  0  0  0  0  0  0  0
   15.7006   17.5144    5.0472 H   0  0  0  0  0  0  0  0  0  0  0  0
   13.8970   12.4396    2.6945 H   0  0  0  0  0  0  0  0  0  0  0  0
   17.0841   11.7229    3.2051 H   0  0  0  0  0  0  0  0  0  0  0  0
   15.9233   11.7590    1.8347 H   0  0  0  0  0  0  0  0  0  0  0  0
   17.3473   12.8540    1.8347 H   0  0  0  0  0  0  0  0  0  0  0  0
   12.1400   14.0710    3.9220 N   0  0  0  0  0  4  0  0  0  0  0  0
   11.4820   14.9390    4.5170 O   0  0  0  0  0  1  0  0  0  0  0  0
   11.6470   13.0900    3.3480 O   0  0  0  0  0  0  0  0  0  0  0  0
   20.4780   15.9110    5.1750 C   0  0  2  0  0  0  0  0  0  0  0  0
   19.5800   17.0640    4.7890 C   0  0  1  0  0  0  0  0  0  0  0  0
   20.0854   15.8039    2.7889 H   0  0  0  0  0  0  0  0  0  0  0  0
   21.9150   16.1120    5.1250 O   0  0  0  0  0  0  0  0  0  0  0  0
   20.5323   15.2429    6.0472 H   0  0  0  0  0  0  0  0  0  0  0  0
   20.1830   18.3440    4.4420 O   0  0  0  0  0  0  0  0  0  0  0  0
   18.7166   17.5599    5.2566 H   0  0  0  0  0  0  0  0  0  0  0  0
   22.2740   17.4760    5.3310 C   0  0  0  0  0  0  0  0  0  0  0  0
   21.6010   18.3310    4.2720 C   0  0  0  0  0  0  0  0  0  0  0  0
   23.3658   17.5854    5.2539 H   0  0  0  0  0  0  0  0  0  0  0  0
   21.9479   17.7986    6.3308 H   0  0  0  0  0  0  0  0  0  0  0  0
   21.8393   17.9244    3.2781 H   0  0  0  0  0  0  0  0  0  0  0  0
   21.9726   19.3618    4.3692 H   0  0  0  0  0  0  0  0  0  0  0  0
  1  2  1  0
  2  3  2  0
  2  4  1  0
  1  5  1  0
  1  6  1  0
  5  7  2  0
  8  5  1  0
  7  9  1  0
 10  7  1  0
 11  8  2  0
 12  8  1  0
  9 13  2  0
  9 14  1  0
 10 15  1  0
 10 16  1  0
 10 17  1  0
 11 13  1  0
 11 18  1  0
 12 19  1  0
 12 20  1  0
 12 21  1  0
 22 13  1  0
 22 23  1  0
 24 22  2  0
 25  4  1  0
 26  4  1  0
  4 27  1  6
 26 25  1  0
 28 25  1  0
 25 29  1  1
 30 26  1  0
 26 31  1  1
 28 32  1  0
 33 30  1  0
 32 33  1  0
 32 34  1  0
 32 35  1  0
 33 36  1  0
 33 37  1  0
M  CHG  2  22   1  23  -1
M  END
$$$$

     RDKit          3D

 32 31  0  0  0  0  0  0  0  0999 V2000
   19.6560   16.2540    2.7490 N   0  0  0  0  0  4  0  0  0  0  0  0
   19.9320   15.7070    4.3310 C   0  0  0  0  0  0  0  0  0  0  0  0
   21.0650   15.4580    4.8570 O   0  0  0  0  0  0  0  0  0  0  0  0
   19.0110   16.5950    5.2360 C   0  0  2  0  0  0  0  0  0  0  0  0
   18.5410   15.8300    3.6040 C   0  0  0  0  0  0  0  0  0  0  0  0
   19.5240   17.5490    2.0900 C   0  0  0  0  0  0  0  0  0  0  0  0
   19.6868   15.5644    1.9845 H   0  0  0  0  0  0  0  0  0  0  0  0
   18.8360   14.1650    4.0640 Cl  0  0  0  0  0  0  0  0  0  0  0  0
   18.4927   16.4648    4.5010 H   0  0  0  0  0  0  0  0  0  0  0  0
   17.5847   15.9210    3.0681 H   0  0  0  0  0  0  0  0  0  0  0  0
   20.4610   17.6120    1.0540 O   0  0  0  0  0  0  0  0  0  0  0  0
   18.5088   17.6561    1.6803 H   0  0  0  0  0  0  0  0  0  0  0  0
   19.7009   18.3608    2.8109 H   0  0  0  0  0  0  0  0  0  0  0  0
   21.3721   17.6733    1.4364 H   0  0  0  0  0  0  0  0  0  0  0  0
   17.6070   16.5180    4.7850 N   0  0  0  0  0  0  0  0  0  0  0  0
   19.5050   18.0340    5.2210 C   0  0  0  0  0  0  0  0  0  0  0  0
   19.0554   16.2170    6.2681 H   0  0  0  0  0  0  0  0  0  0  0  0
   16.5700   16.0740    5.5550 C   0  0  0  0  0  0  0  0  0  0  0  0
   17.3951   16.8200    3.8233 H   0  0  0  0  0  0  0  0  0  0  0  0
   19.6274   18.3905    6.2544 H   0  0  0  0  0  0  0  0  0  0  0  0
   20.4719   18.0843    4.6989 H   0  0  0  0  0  0  0  0  0  0  0  0
   18.7729   18.6676    4.6989 H   0  0  0  0  0  0  0  0  0  0  0  0
   16.6490   15.8510    6.7600 O   0  0  0  0  0  0  0  0  0  0  0  0
   15.2880   15.8810    4.7890 C   0  0  0  0  0  0  0  0  0  0  0  0
   15.2690   14.6290    3.9510 C   0  0  0  0  0  0  0  0  0  0  0  0
   14.4573   15.8307    5.5083 H   0  0  0  0  0  0  0  0  0  0  0  0
   15.1930   16.7325    4.0991 H   0  0  0  0  0  0  0  0  0  0  0  0
   13.9890   13.8330    3.8980 C   0  0  0  0  0  0  0  0  0  0  0  0
   16.2910   14.2160    3.3950 O   0  0  0  0  0  0  0  0  0  0  0  0
   13.6469   13.6202    4.9216 H   0  0  0  0  0  0  0  0  0  0  0  0
   13.2190   14.4118    3.3669 H   0  0  0  0  0  0  0  0  0  0  0  0
   14.1676   12.8864    3.3669 H   0  0  0  0  0  0  0  0  0  0  0  0
  1  2  1  0
  2  3  2  0
  2  4  1  0
  5  1  1  0
  6  1  1  0
  1  7  1  0
  8  5  1  0
  5  9  1  0
  5 10  1  0
 11  6  1  0
  6 12  1  0
  6 13  1  0
 11 14  1  0
  4 15  1  0
 16  4  1  0
  4 17  1  1
 15 18  1  0
 15 19  1  0
 16 20  1  0
 16 21  1  0
 16 22  1  0
 23 18  2  0
 24 18  1  0
 25 24  1  0
 24 26  1  0
 24 27  1  0
 25 28  1  0
 29 25  2  0
 28 30  1  0
 28 31  1  0
 28 32  1  0
M  CHG  1   1   1
M  END
$$$$

     RDKit          3D

 61 66  0  0  0  0  0  0  0  0999 V2000
   17.3120   14.8840    3.6850 N   0  0  0  0  0  4  0  0  0  0  0  0
   17.0640   15.6950    4.6000 C   0  0  0  0  0  0  0  0  0  0  0  0
   16.0440   16.0450    5.2610 O   0  0  0  0  0  0  0  0  0  0  0  0
   18.4320   16.1970    5.1240 C   0  0  1  0  0  0  0  0  0  0  0  0
   15.8740   14.5700    3.4350 C   0  0  0  0  0  0  0  0  0  0  0  0
   17.9015   14.1519    3.2638 H   0  0  0  0  0  0  0  0  0  0  0  0
   17.5427   15.7952    3.2638 H   0  0  0  0  0  0  0  0  0  0  0  0
   15.0340   15.1500    4.5710 C   0  0  0  0  0  0  0  0  0  0  0  0
   15.6940   13.0650    3.3050 C   0  0  0  0  0  0  0  0  0  0  0  0
   15.5374   15.0258    2.4922 H   0  0  0  0  0  0  0  0  0  0  0  0
   13.7020   14.4080    4.7180 C   0  0  0  0  0  0  0  0  0  0  0  0
   15.5970   15.0640    5.5121 H   0  0  0  0  0  0  0  0  0  0  0  0
   14.8190   16.2035    4.3388 H   0  0  0  0  0  0  0  0  0  0  0  0
   14.2370   12.7440    2.9530 C   0  0  0  0  0  0  0  0  0  0  0  0
   15.9539   12.5825    4.2588 H   0  0  0  0  0  0  0  0  0  0  0  0
   16.3514   12.6885    2.5075 H   0  0  0  0  0  0  0  0  0  0  0  0
   13.3470   13.8190    3.4220 N   0  0  0  0  0  0  0  0  0  0  0  0
   13.8024   13.6126    5.4712 H   0  0  0  0  0  0  0  0  0  0  0  0
   12.9165   15.1075    5.0399 H   0  0  0  0  0  0  0  0  0  0  0  0
   13.9478   11.7981    3.4343 H   0  0  0  0  0  0  0  0  0  0  0  0
   14.1450   12.6557    1.8604 H   0  0  0  0  0  0  0  0  0  0  0  0
   11.9880   13.4020    3.3850 C   0  0  0  0  0  0  0  0  0  0  0  0
   11.5660   12.5400    2.3890 C   0  0  0  0  0  0  0  0  0  0  0  0
   11.1350   13.8590    4.3100 N   0  0  0  0  0  0  0  0  0  0  0  0
   10.2400   12.1420    2.3750 C   0  0  0  0  0  0  0  0  0  0  0  0
   12.2690   12.1783    1.6242 H   0  0  0  0  0  0  0  0  0  0  0  0
    9.8540   13.4500    4.2540 C   0  0  0  0  0  0  0  0  0  0  0  0
    9.3950   12.5990    3.3200 N   0  0  0  0  0  0  0  0  0  0  0  0
    9.6570   11.2050    1.3370 C   0  0  0  0  0  0  0  0  0  0  0  0
    8.8890   13.9600    5.2970 C   0  0  0  0  0  0  0  0  0  0  0  0
    8.9910   11.7150    0.0800 C   0  0  0  0  0  0  0  0  0  0  0  0
    8.1650   11.0550    1.1480 C   0  0  0  0  0  0  0  0  0  0  0  0
   10.4903   10.5206    1.5541 H   0  0  0  0  0  0  0  0  0  0  0  0
    8.4670   13.0710    6.4460 C   0  0  0  0  0  0  0  0  0  0  0  0
    9.3700   14.2390    6.7020 C   0  0  0  0  0  0  0  0  0  0  0  0
    8.3620   14.5353    4.5216 H   0  0  0  0  0  0  0  0  0  0  0  0
    8.9011   12.7975   -0.0938 H   0  0  0  0  0  0  0  0  0  0  0  0
    9.1394   11.5535   -0.9979 H   0  0  0  0  0  0  0  0  0  0  0  0
    7.4711   11.6548    1.7553 H   0  0  0  0  0  0  0  0  0  0  0  0
    7.4597   10.2113    1.1741 H   0  0  0  0  0  0  0  0  0  0  0  0
    7.4269   13.0920    6.8035 H   0  0  0  0  0  0  0  0  0  0  0  0
    8.5168   11.9915    6.6513 H   0  0  0  0  0  0  0  0  0  0  0  0
   10.4247   14.0703    6.9649 H   0  0  0  0  0  0  0  0  0  0  0  0
    9.3405   15.1098    7.3735 H   0  0  0  0  0  0  0  0  0  0  0  0
   19.2160   15.0790    5.7880 C   0  0  0  0  0  0  0  0  0  0  0  0
   19.1780   16.7510    4.0140 O   0  0  0  0  0  0  0  0  0  0  0  0
   18.2626   16.9712    5.8869 H   0  0  0  0  0  0  0  0  0  0  0  0
   20.5110   15.6470    6.2960 C   0  0  0  0  0  0  0  0  0  0  0  0
   18.6366   14.6660    6.6269 H   0  0  0  0  0  0  0  0  0  0  0  0
   19.4134   14.2738    5.0650 H   0  0  0  0  0  0  0  0  0  0  0  0
   20.4050   17.2200    4.3910 C   0  0  0  0  0  0  0  0  0  0  0  0
   21.1010   15.2070    7.2790 O   0  0  0  0  0  0  0  0  0  0  0  0
   21.1010   16.7440    5.5030 C   0  0  0  0  0  0  0  0  0  0  0  0
   20.9730   18.2040    3.5820 C   0  0  0  0  0  0  0  0  0  0  0  0
   22.3530   17.2680    5.8340 C   0  0  0  0  0  0  0  0  0  0  0  0
   22.2230   18.7320    3.9050 C   0  0  0  0  0  0  0  0  0  0  0  0
   20.4364   18.5628    2.6913 H   0  0  0  0  0  0  0  0  0  0  0  0
   22.8980   18.2620    5.0290 C   0  0  0  0  0  0  0  0  0  0  0  0
   22.8981   16.9006    6.7160 H   0  0  0  0  0  0  0  0  0  0  0  0
   22.6727   19.5145    3.2761 H   0  0  0  0  0  0  0  0  0  0  0  0
   24.1000   18.7710    5.3330 F   0  0  0  0  0  0  0  0  0  0  0  0
  1  2  1  0
  2  3  2  0
  2  4  1  0
  1  5  1  0
  1  6  1  0
  1  7  1  0
  8  5  1  0
  9  5  1  0
  5 10  1  0
 11  8  1  0
  8 12  1  0
  8 13  1  0
  9 14  1  0
  9 15  1  0
  9 16  1  0
 17 11  1  0
 11 18  1  0
 11 19  1  0
 14 17  1  0
 14 20  1  0
 14 21  1  0
 17 22  1  0
 23 22  2  0
 24 22  1  0
 25 23  1  0
 23 26  1  0
 24 27  2  0
 28 25  2  0
 29 25  1  0
 27 28  1  0
 30 27  1  0
 31 29  1  0
 32 29  1  0
 29 33  1  0
 34 30  1  0
 35 30  1  0
 30 36  1  0
 32 31  1  0
 31 37  1  0
 31 38  1  0
 32 39  1  0
 32 40  1  0
 35 34  1  0
 34 41  1  0
 34 42  1  0
 35 43  1  0
 35 44  1  0
 45  4  1  0
 46  4  1  0
  4 47  1  1
 48 45  1  0
 45 49  1  0
 45 50  1  0
 46 51  1  0
 52 48  2  0
 53 48  1  0
 51 53  2  0
 54 51  1  0
 55 53  1  0
 56 54  2  0
 54 57  1  0
 55 58  2  0
 55 59  1  0
 58 56  1  0
 56 60  1  0
 61 58  1  0
M  CHG  1   1   1
M  END
$$$$

     RDKit          3D

 55 59  0  0  0  0  0  0  0  0999 V2000
   17.3120   14.8840    3.6850 N   0  0  0  0  0  4  0  0  0  0  0  0
   18.3770   14.6060    3.8130 C   0  0  0  0  0  0  0  0  0  0  0  0
   18.7230   13.5640    3.1770 O   0  0  0  0  0  0  0  0  0  0  0  0
   19.4670   15.4790    4.2890 C   0  0  0  0  0  0  0  0  0  0  0  0
   15.8740   14.5700    3.4350 C   0  0  0  0  0  0  0  0  0  0  0  0
   17.4838   14.9215    4.6999 H   0  0  0  0  0  0  0  0  0  0  0  0
   17.5427   15.7952    3.2638 H   0  0  0  0  0  0  0  0  0  0  0  0
   15.0340   15.1500    4.5710 C   0  0  0  0  0  0  0  0  0  0  0  0
   15.6940   13.0650    3.3050 C   0  0  0  0  0  0  0  0  0  0  0  0
   15.5374   15.0258    2.4922 H   0  0  0  0  0  0  0  0  0  0  0  0
   13.7020   14.4080    4.7180 C   0  0  0  0  0  0  0  0  0  0  0  0
   15.5970   15.0640    5.5121 H   0  0  0  0  0  0  0  0  0  0  0  0
   14.8190   16.2035    4.3388 H   0  0  0  0  0  0  0  0  0  0  0  0
   14.2370   12.7440    2.9530 C   0  0  0  0  0  0  0  0  0  0  0  0
   15.9539   12.5825    4.2588 H   0  0  0  0  0  0  0  0  0  0  0  0
   16.3514   12.6885    2.5075 H   0  0  0  0  0  0  0  0  0  0  0  0
   13.3470   13.8190    3.4220 N   0  0  0  0  0  0  0  0  0  0  0  0
   13.8024   13.6126    5.4712 H   0  0  0  0  0  0  0  0  0  0  0  0
   12.9165   15.1075    5.0399 H   0  0  0  0  0  0  0  0  0  0  0  0
   13.9478   11.7981    3.4343 H   0  0  0  0  0  0  0  0  0  0  0  0
   14.1450   12.6557    1.8604 H   0  0  0  0  0  0  0  0  0  0  0  0
   11.9880   13.4020    3.3850 C   0  0  0  0  0  0  0  0  0  0  0  0
   11.5660   12.5400    2.3890 C   0  0  0  0  0  0  0  0  0  0  0  0
   11.1350   13.8590    4.3100 N   0  0  0  0  0  0  0  0  0  0  0  0
   10.2400   12.1420    2.3750 C   0  0  0  0  0  0  0  0  0  0  0  0
   12.2690   12.1783    1.6242 H   0  0  0  0  0  0  0  0  0  0  0  0
    9.8540   13.4500    4.2540 C   0  0  0  0  0  0  0  0  0  0  0  0
    9.3950   12.5990    3.3200 N   0  0  0  0  0  0  0  0  0  0  0  0
    9.6570   11.2050    1.3370 C   0  0  0  0  0  0  0  0  0  0  0  0
    8.8890   13.9600    5.2970 C   0  0  0  0  0  0  0  0  0  0  0  0
    8.9910   11.7150    0.0800 C   0  0  0  0  0  0  0  0  0  0  0  0
    8.1650   11.0550    1.1480 C   0  0  0  0  0  0  0  0  0  0  0  0
   10.4903   10.5206    1.5541 H   0  0  0  0  0  0  0  0  0  0  0  0
    8.4670   13.0710    6.4460 C   0  0  0  0  0  0  0  0  0  0  0  0
    9.3700   14.2390    6.7020 C   0  0  0  0  0  0  0  0  0  0  0  0
    8.3620   14.5353    4.5216 H   0  0  0  0  0  0  0  0  0  0  0  0
    8.9011   12.7975   -0.0938 H   0  0  0  0  0  0  0  0  0  0  0  0
    9.1394   11.5535   -0.9979 H   0  0  0  0  0  0  0  0  0  0  0  0
    7.4711   11.6548    1.7553 H   0  0  0  0  0  0  0  0  0  0  0  0
    7.4597   10.2113    1.1741 H   0  0  0  0  0  0  0  0  0  0  0  0
    7.4269   13.0920    6.8035 H   0  0  0  0  0  0  0  0  0  0  0  0
    8.5168   11.9915    6.6513 H   0  0  0  0  0  0  0  0  0  0  0  0
   10.4247   14.0703    6.9649 H   0  0  0  0  0  0  0  0  0  0  0  0
    9.3405   15.1098    7.3735 H   0  0  0  0  0  0  0  0  0  0  0  0
   19.8650   16.5880    3.5520 C   0  0  0  0  0  0  0  0  0  0  0  0
   20.1190   15.2100    5.4870 C   0  0  0  0  0  0  0  0  0  0  0  0
   19.2770   16.8910    2.3860 F   0  0  0  0  0  0  0  0  0  0  0  0
   20.9000   17.4140    3.9940 C   0  0  0  0  0  0  0  0  0  0  0  0
   21.1550   16.0260    5.9440 C   0  0  0  0  0  0  0  0  0  0  0  0
   19.7670   14.1630    6.2480 F   0  0  0  0  0  0  0  0  0  0  0  0
   21.5560   17.1310    5.1920 C   0  0  0  0  0  0  0  0  0  0  0  0
   21.1984   18.2885    3.3972 H   0  0  0  0  0  0  0  0  0  0  0  0
   21.6553   15.7981    6.8968 H   0  0  0  0  0  0  0  0  0  0  0  0
   22.8770   18.1830    5.7550 S   0  0  0  0  0  0  0  0  0  0  0  0
   22.8963   18.1984    7.1248 H   0  0  0  0  0  0  0  0  0  0  0  0
  1  2  1  0
  2  3  2  0
  2  4  1  0
  1  5  1  0
  1  6  1  0
  1  7  1  0
  8  5  1  0
  9  5  1  0
  5 10  1  0
 11  8  1  0
  8 12  1  0
  8 13  1  0
  9 14  1  0
  9 15  1  0
  9 16  1  0
 17 11  1  0
 11 18  1  0
 11 19  1  0
 14 17  1  0
 14 20  1  0
 14 21  1  0
 17 22  1  0
 23 22  2  0
 24 22  1  0
 25 23  1  0
 23 26  1  0
 24 27  2  0
 28 25  2  0
 29 25  1  0
 27 28  1  0
 30 27  1  0
 31 29  1  0
 32 29  1  0
 29 33  1  0
 34 30  1  0
 35 30  1  0
 30 36  1  0
 32 31  1  0
 31 37  1  0
 31 38  1  0
 32 39  1  0
 32 40  1  0
 35 34  1  0
 34 41  1  0
 34 42  1  0
 35 43  1  0
 35 44  1  0
 45  4  2  0
 46  4  1  0
 47 45  1  0
 48 45  1  0
 46 49  2  0
 50 46  1  0
 51 48  2  0
 48 52  1  0
 49 51  1  0
 49 53  1  0
 54 51  1  0
 54 55  1  0
M  CHG  1   1   1
M  END
$$$$

     RDKit          3D

 57 62  0  0  0  0  0  0  0  0999 V2000
   17.3120   14.8840    3.6850 N   0  0  0  0  0  4  0  0  0  0  0  0
   18.5070   14.9400    3.6290 C   0  0  0  0  0  0  0  0  0  0  0  0
   18.9090   13.7860    3.2700 O   0  0  0  0  0  0  0  0  0  0  0  0
   19.5760   15.9820    3.8600 C   0  0  0  0  0  0  0  0  0  0  0  0
   15.8740   14.5700    3.4350 C   0  0  0  0  0  0  0  0  0  0  0  0
   17.4838   14.9215    4.6999 H   0  0  0  0  0  0  0  0  0  0  0  0
   17.5427   15.7952    3.2638 H   0  0  0  0  0  0  0  0  0  0  0  0
   15.0340   15.1500    4.5710 C   0  0  0  0  0  0  0  0  0  0  0  0
   15.6940   13.0650    3.3050 C   0  0  0  0  0  0  0  0  0  0  0  0
   15.5374   15.0258    2.4922 H   0  0  0  0  0  0  0  0  0  0  0  0
   13.7020   14.4080    4.7180 C   0  0  0  0  0  0  0  0  0  0  0  0
   15.5970   15.0640    5.5121 H   0  0  0  0  0  0  0  0  0  0  0  0
   14.8190   16.2035    4.3388 H   0  0  0  0  0  0  0  0  0  0  0  0
   14.2370   12.7440    2.9530 C   0  0  0  0  0  0  0  0  0  0  0  0
   15.9539   12.5825    4.2588 H   0  0  0  0  0  0  0  0  0  0  0  0
   16.3514   12.6885    2.5075 H   0  0  0  0  0  0  0  0  0  0  0  0
   13.3470   13.8190    3.4220 N   0  0  0  0  0  0  0  0  0  0  0  0
   13.8024   13.6126    5.4712 H   0  0  0  0  0  0  0  0  0  0  0  0
   12.9165   15.1075    5.0399 H   0  0  0  0  0  0  0  0  0  0  0  0
   13.9478   11.7981    3.4343 H   0  0  0  0  0  0  0  0  0  0  0  0
   14.1450   12.6557    1.8604 H   0  0  0  0  0  0  0  0  0  0  0  0
   11.9880   13.4020    3.3850 C   0  0  0  0  0  0  0  0  0  0  0  0
   11.5660   12.5400    2.3890 C   0  0  0  0  0  0  0  0  0  0  0  0
   11.1350   13.8590    4.3100 N   0  0  0  0  0  0  0  0  0  0  0  0
   10.2400   12.1420    2.3750 C   0  0  0  0  0  0  0  0  0  0  0  0
   12.2690   12.1783    1.6242 H   0  0  0  0  0  0  0  0  0  0  0  0
    9.8540   13.4500    4.2540 C   0  0  0  0  0  0  0  0  0  0  0  0
    9.3950   12.5990    3.3200 N   0  0  0  0  0  0  0  0  0  0  0  0
    9.6570   11.2050    1.3370 C   0  0  0  0  0  0  0  0  0  0  0  0
    8.8890   13.9600    5.2970 C   0  0  0  0  0  0  0  0  0  0  0  0
    8.9910   11.7150    0.0800 C   0  0  0  0  0  0  0  0  0  0  0  0
    8.1650   11.0550    1.1480 C   0  0  0  0  0  0  0  0  0  0  0  0
   10.4903   10.5206    1.5541 H   0  0  0  0  0  0  0  0  0  0  0  0
    8.4670   13.0710    6.4460 C   0  0  0  0  0  0  0  0  0  0  0  0
    9.3700   14.2390    6.7020 C   0  0  0  0  0  0  0  0  0  0  0  0
    8.3620   14.5353    4.5216 H   0  0  0  0  0  0  0  0  0  0  0  0
    8.9011   12.7975   -0.0938 H   0  0  0  0  0  0  0  0  0  0  0  0
    9.1394   11.5535   -0.9979 H   0  0  0  0  0  0  0  0  0  0  0  0
    7.4711   11.6548    1.7553 H   0  0  0  0  0  0  0  0  0  0  0  0
    7.4597   10.2113    1.1741 H   0  0  0  0  0  0  0  0  0  0  0  0
    7.4269   13.0920    6.8035 H   0  0  0  0  0  0  0  0  0  0  0  0
    8.5168   11.9915    6.6513 H   0  0  0  0  0  0  0  0  0  0  0  0
   10.4247   14.0703    6.9649 H   0  0  0  0  0  0  0  0  0  0  0  0
    9.3405   15.1098    7.3735 H   0  0  0  0  0  0  0  0  0  0  0  0
   20.4100   15.8720    4.9980 C   0  0  0  0  0  0  0  0  0  0  0  0
   19.7720   17.0580    2.9840 C   0  0  0  0  0  0  0  0  0  0  0  0
   21.3870   16.8450    5.1880 C   0  0  0  0  0  0  0  0  0  0  0  0
   20.2898   15.0428    5.7107 H   0  0  0  0  0  0  0  0  0  0  0  0
   20.7670   18.0270    3.1980 C   0  0  0  0  0  0  0  0  0  0  0  0
   19.0180   17.2230    1.8880 F   0  0  0  0  0  0  0  0  0  0  0  0
   22.2740   16.8960    6.2210 O   0  0  0  0  0  0  0  0  0  0  0  0
   21.5920   17.9160    4.3270 C   0  0  0  0  0  0  0  0  0  0  0  0
   20.8969   18.8597    2.4911 H   0  0  0  0  0  0  0  0  0  0  0  0
   23.0460   17.9980    6.0250 C   0  0  0  0  0  0  0  0  0  0  0  0
   22.6690   18.6580    4.8780 C   0  0  0  0  0  0  0  0  0  0  0  0
   23.8602   18.3180    6.6919 H   0  0  0  0  0  0  0  0  0  0  0  0
   23.1137   19.5774    4.4696 H   0  0  0  0  0  0  0  0  0  0  0  0
  1  2  1  0
  2  3  2  0
  2  4  1  0
  1  5  1  0
  1  6  1  0
  1  7  1  0
  8  5  1  0
  9  5  1  0
  5 10  1  0
 11  8  1  0
  8 12  1  0
  8 13  1  0
  9 14  1  0
  9 15  1  0
  9 16  1  0
 17 11  1  0
 11 18  1  0
 11 19  1  0
 14 17  1  0
 14 20  1  0
 14 21  1  0
 17 22  1  0
 23 22  2  0
 24 22  1  0
 25 23  1  0
 23 26  1  0
 24 27  2  0
 28 25  2  0
 29 25  1  0
 27 28  1  0
 30 27  1  0
 31 29  1  0
 32 29  1  0
 29 33  1  0
 34 30  1  0
 35 30  1  0
 30 36  1  0
 32 31  1  0
 31 37  1  0
 31 38  1  0
 32 39  1  0
 32 40  1  0
 35 34  1  0
 34 41  1  0
 34 42  1  0
 35 43  1  0
 35 44  1  0
 45  4  2  0
 46  4  1  0
 47 45  1  0
 45 48  1  0
 46 49  2  0
 50 46  1  0
 51 47  1  0
 52 47  2  0
 49 52  1  0
 49 53  1  0
 54 51  1  0
 52 55  1  0
 55 54  2  0
 54 56  1  0
 55 57  1  0
M  CHG  1   1   1
M  END
$$$$

     RDKit          3D

 59 63  0  0  0  0  0  0  0  0999 V2000
   17.3120   14.8840    3.6850 N   0  0  0  0  0  4  0  0  0  0  0  0
   18.4780   14.6420    3.9160 C   0  0  0  0  0  0  0  0  0  0  0  0
   18.8990   13.6640    3.2220 O   0  0  0  0  0  0  0  0  0  0  0  0
   19.5720   15.6760    4.4270 C   0  0  0  0  0  0  0  0  0  0  0  0
   15.8740   14.5700    3.4350 C   0  0  0  0  0  0  0  0  0  0  0  0
   17.4838   14.9215    4.6999 H   0  0  0  0  0  0  0  0  0  0  0  0
   17.5427   15.7952    3.2638 H   0  0  0  0  0  0  0  0  0  0  0  0
   15.0340   15.1500    4.5710 C   0  0  0  0  0  0  0  0  0  0  0  0
   15.6940   13.0650    3.3050 C   0  0  0  0  0  0  0  0  0  0  0  0
   15.5374   15.0258    2.4922 H   0  0  0  0  0  0  0  0  0  0  0  0
   13.7020   14.4080    4.7180 C   0  0  0  0  0  0  0  0  0  0  0  0
   15.5970   15.0640    5.5121 H   0  0  0  0  0  0  0  0  0  0  0  0
   14.8190   16.2035    4.3388 H   0  0  0  0  0  0  0  0  0  0  0  0
   14.2370   12.7440    2.9530 C   0  0  0  0  0  0  0  0  0  0  0  0
   15.9539   12.5825    4.2588 H   0  0  0  0  0  0  0  0  0  0  0  0
   16.3514   12.6885    2.5075 H   0  0  0  0  0  0  0  0  0  0  0  0
   13.3470   13.8190    3.4220 N   0  0  0  0  0  0  0  0  0  0  0  0
   13.8024   13.6126    5.4712 H   0  0  0  0  0  0  0  0  0  0  0  0
   12.9165   15.1075    5.0399 H   0  0  0  0  0  0  0  0  0  0  0  0
   13.9478   11.7981    3.4343 H   0  0  0  0  0  0  0  0  0  0  0  0
   14.1450   12.6557    1.8604 H   0  0  0  0  0  0  0  0  0  0  0  0
   11.9880   13.4020    3.3850 C   0  0  0  0  0  0  0  0  0  0  0  0
   11.5660   12.5400    2.3890 C   0  0  0  0  0  0  0  0  0  0  0  0
   11.1350   13.8590    4.3100 N   0  0  0  0  0  0  0  0  0  0  0  0
   10.2400   12.1420    2.3750 C   0  0  0  0  0  0  0  0  0  0  0  0
   12.2690   12.1783    1.6242 H   0  0  0  0  0  0  0  0  0  0  0  0
    9.8540   13.4500    4.2540 C   0  0  0  0  0  0  0  0  0  0  0  0
    9.3950   12.5990    3.3200 N   0  0  0  0  0  0  0  0  0  0  0  0
    9.6570   11.2050    1.3370 C   0  0  0  0  0  0  0  0  0  0  0  0
    8.8890   13.9600    5.2970 C   0  0  0  0  0  0  0  0  0  0  0  0
    8.9910   11.7150    0.0800 C   0  0  0  0  0  0  0  0  0  0  0  0
    8.1650   11.0550    1.1480 C   0  0  0  0  0  0  0  0  0  0  0  0
   10.4903   10.5206    1.5541 H   0  0  0  0  0  0  0  0  0  0  0  0
    8.4670   13.0710    6.4460 C   0  0  0  0  0  0  0  0  0  0  0  0
    9.3700   14.2390    6.7020 C   0  0  0  0  0  0  0  0  0  0  0  0
    8.3620   14.5353    4.5216 H   0  0  0  0  0  0  0  0  0  0  0  0
    8.9011   12.7975   -0.0938 H   0  0  0  0  0  0  0  0  0  0  0  0
    9.1394   11.5535   -0.9979 H   0  0  0  0  0  0  0  0  0  0  0  0
    7.4711   11.6548    1.7553 H   0  0  0  0  0  0  0  0  0  0  0  0
    7.4597   10.2113    1.1741 H   0  0  0  0  0  0  0  0  0  0  0  0
    7.4269   13.0920    6.8035 H   0  0  0  0  0  0  0  0  0  0  0  0
    8.5168   11.9915    6.6513 H   0  0  0  0  0  0  0  0  0  0  0  0
   10.4247   14.0703    6.9649 H   0  0  0  0  0  0  0  0  0  0  0  0
    9.3405   15.1098    7.3735 H   0  0  0  0  0  0  0  0  0  0  0  0
   19.7800   16.9580    3.9670 C   0  0  0  0  0  0  0  0  0  0  0  0
   20.6770   15.2940    5.6830 S   0  0  0  0  0  0  0  0  0  0  0  0
   20.8750   17.6000    4.6110 C   0  0  0  0  0  0  0  0  0  0  0  0
   19.0960   17.5440    2.9570 O   0  0  0  0  0  0  0  0  0  0  0  0
   21.4600   16.8170    5.5880 C   0  0  0  0  0  0  0  0  0  0  0  0
   21.2196   18.6134    4.3575 H   0  0  0  0  0  0  0  0  0  0  0  0
   19.8300   17.4910    1.7360 C   0  0  0  0  0  0  0  0  0  0  0  0
   22.4870   17.0520    6.4170 O   0  0  0  0  0  0  0  0  0  0  0  0
   20.9047   17.4134    1.9573 H   0  0  0  0  0  0  0  0  0  0  0  0
   19.5111   16.6135    1.1543 H   0  0  0  0  0  0  0  0  0  0  0  0
   19.6405   18.4052    1.1543 H   0  0  0  0  0  0  0  0  0  0  0  0
   23.3230   18.1490    6.0850 C   0  0  0  0  0  0  0  0  0  0  0  0
   23.6862   18.6256    7.0075 H   0  0  0  0  0  0  0  0  0  0  0  0
   24.1799   17.7916    5.4950 H   0  0  0  0  0  0  0  0  0  0  0  0
   22.7512   18.8804    5.4950 H   0  0  0  0  0  0  0  0  0  0  0  0
  1  2  1  0
  2  3  2  0
  2  4  1  0
  1  5  1  0
  1  6  1  0
  1  7  1  0
  8  5  1  0
  9  5  1  0
  5 10  1  0
 11  8  1  0
  8 12  1  0
  8 13  1  0
  9 14  1  0
  9 15  1  0
  9 16  1  0
 17 11  1  0
 11 18  1  0
 11 19  1  0
 14 17  1  0
 14 20  1  0
 14 21  1  0
 17 22  1  0
 23 22  2  0
 24 22  1  0
 25 23  1  0
 23 26  1  0
 24 27  2  0
 28 25  2  0
 29 25  1  0
 27 28  1  0
 30 27  1  0
 31 29  1  0
 32 29  1  0
 29 33  1  0
 34 30  1  0
 35 30  1  0
 30 36  1  0
 32 31  1  0
 31 37  1  0
 31 38  1  0
 32 39  1  0
 32 40  1  0
 35 34  1  0
 34 41  1  0
 34 42  1  0
 35 43  1  0
 35 44  1  0
  4 45  2  0
 46  4  1  0
 45 47  1  0
 48 45  1  0
 46 49  1  0
 47 49  2  0
 47 50  1  0
 51 48  1  0
 52 49  1  0
 51 53  1  0
 51 54  1  0
 51 55  1  0
 52 56  1  0
 56 57  1  0
 56 58  1  0
 56 59  1  0
M  CHG  1   1   1
M  END
$$$$

     RDKit          3D

 57 62  0  0  0  0  0  0  0  0999 V2000
   17.3120   14.8840    3.6850 N   0  0  0  0  0  4  0  0  0  0  0  0
   18.6420   14.9750    3.6490 C   0  0  0  0  0  0  0  0  0  0  0  0
   18.9300   13.8050    3.2430 O   0  0  0  0  0  0  0  0  0  0  0  0
   19.7680   15.9070    3.8370 C   0  0  2  0  0  0  0  0  0  0  0  0
   15.8740   14.5700    3.4350 C   0  0  0  0  0  0  0  0  0  0  0  0
   17.4838   14.9215    4.6999 H   0  0  0  0  0  0  0  0  0  0  0  0
   17.5427   15.7952    3.2638 H   0  0  0  0  0  0  0  0  0  0  0  0
   15.0340   15.1500    4.5710 C   0  0  0  0  0  0  0  0  0  0  0  0
   15.6940   13.0650    3.3050 C   0  0  0  0  0  0  0  0  0  0  0  0
   15.5374   15.0258    2.4922 H   0  0  0  0  0  0  0  0  0  0  0  0
   13.7020   14.4080    4.7180 C   0  0  0  0  0  0  0  0  0  0  0  0
   15.5970   15.0640    5.5121 H   0  0  0  0  0  0  0  0  0  0  0  0
   14.8190   16.2035    4.3388 H   0  0  0  0  0  0  0  0  0  0  0  0
   14.2370   12.7440    2.9530 C   0  0  0  0  0  0  0  0  0  0  0  0
   15.9539   12.5825    4.2588 H   0  0  0  0  0  0  0  0  0  0  0  0
   16.3514   12.6885    2.5075 H   0  0  0  0  0  0  0  0  0  0  0  0
   13.3470   13.8190    3.4220 N   0  0  0  0  0  0  0  0  0  0  0  0
   13.8024   13.6126    5.4712 H   0  0  0  0  0  0  0  0  0  0  0  0
   12.9165   15.1075    5.0399 H   0  0  0  0  0  0  0  0  0  0  0  0
   13.9478   11.7981    3.4343 H   0  0  0  0  0  0  0  0  0  0  0  0
   14.1450   12.6557    1.8604 H   0  0  0  0  0  0  0  0  0  0  0  0
   11.9880   13.4020    3.3850 C   0  0  0  0  0  0  0  0  0  0  0  0
   11.5660   12.5400    2.3890 C   0  0  0  0  0  0  0  0  0  0  0  0
   11.1350   13.8590    4.3100 N   0  0  0  0  0  0  0  0  0  0  0  0
   10.2400   12.1420    2.3750 C   0  0  0  0  0  0  0  0  0  0  0  0
   12.2690   12.1783    1.6242 H   0  0  0  0  0  0  0  0  0  0  0  0
    9.8540   13.4500    4.2540 C   0  0  0  0  0  0  0  0  0  0  0  0
    9.3950   12.5990    3.3200 N   0  0  0  0  0  0  0  0  0  0  0  0
    9.6570   11.2050    1.3370 C   0  0  0  0  0  0  0  0  0  0  0  0
    8.8890   13.9600    5.2970 C   0  0  0  0  0  0  0  0  0  0  0  0
    8.9910   11.7150    0.0800 C   0  0  0  0  0  0  0  0  0  0  0  0
    8.1650   11.0550    1.1480 C   0  0  0  0  0  0  0  0  0  0  0  0
   10.4903   10.5206    1.5541 H   0  0  0  0  0  0  0  0  0  0  0  0
    8.4670   13.0710    6.4460 C   0  0  0  0  0  0  0  0  0  0  0  0
    9.3700   14.2390    6.7020 C   0  0  0  0  0  0  0  0  0  0  0  0
    8.3620   14.5353    4.5216 H   0  0  0  0  0  0  0  0  0  0  0  0
    8.9011   12.7975   -0.0938 H   0  0  0  0  0  0  0  0  0  0  0  0
    9.1394   11.5535   -0.9979 H   0  0  0  0  0  0  0  0  0  0  0  0
    7.4711   11.6548    1.7553 H   0  0  0  0  0  0  0  0  0  0  0  0
    7.4597   10.2113    1.1741 H   0  0  0  0  0  0  0  0  0  0  0  0
    7.4269   13.0920    6.8035 H   0  0  0  0  0  0  0  0  0  0  0  0
    8.5168   11.9915    6.6513 H   0  0  0  0  0  0  0  0  0  0  0  0
   10.4247   14.0703    6.9649 H   0  0  0  0  0  0  0  0  0  0  0  0
    9.3405   15.1098    7.3735 H   0  0  0  0  0  0  0  0  0  0  0  0
   20.4780   15.9110    5.1750 C   0  0  2  0  0  0  0  0  0  0  0  0
   19.5800   17.0640    4.7890 C   0  0  1  0  0  0  0  0  0  0  0  0
   20.0854   15.8039    2.7889 H   0  0  0  0  0  0  0  0  0  0  0  0
   21.9150   16.1120    5.1250 O   0  0  0  0  0  0  0  0  0  0  0  0
   20.5323   15.2429    6.0472 H   0  0  0  0  0  0  0  0  0  0  0  0
   20.1830   18.3440    4.4420 O   0  0  0  0  0  0  0  0  0  0  0  0
   18.7166   17.5599    5.2566 H   0  0  0  0  0  0  0  0  0  0  0  0
   22.2740   17.4760    5.3310 C   0  0  0  0  0  0  0  0  0  0  0  0
   21.6010   18.3310    4.2720 C   0  0  0  0  0  0  0  0  0  0  0  0
   23.3658   17.5854    5.2539 H   0  0  0  0  0  0  0  0  0  0  0  0
   21.9479   17.7986    6.3308 H   0  0  0  0  0  0  0  0  0  0  0  0
   21.8393   17.9244    3.2781 H   0  0  0  0  0  0  0  0  0  0  0  0
   21.9726   19.3618    4.3692 H   0  0  0  0  0  0  0  0  0  0  0  0
  1  2  1  0
  2  3  2  0
  2  4  1  0
  1  5  1  0
  1  6  1  0
  1  7  1  0
  8  5  1  0
  9  5  1  0
  5 10  1  0
 11  8  1  0
  8 12  1  0
  8 13  1  0
  9 14  1  0
  9 15  1  0
  9 16  1  0
 17 11  1  0
 11 18  1  0
 11 19  1  0
 14 17  1  0
 14 20  1  0
 14 21  1  0
 17 22  1  0
 23 22  2  0
 24 22  1  0
 25 23  1  0
 23 26  1  0
 24 27  2  0
 28 25  2  0
 29 25  1  0
 27 28  1  0
 30 27  1  0
 31 29  1  0
 32 29  1  0
 29 33  1  0
 34 30  1  0
 35 30  1  0
 30 36  1  0
 32 31  1  0
 31 37  1  0
 31 38  1  0
 32 39  1  0
 32 40  1  0
 35 34  1  0
 34 41  1  0
 34 42  1  0
 35 43  1  0
 35 44  1  0
 45  4  1  0
 46  4  1  0
  4 47  1  6
 46 45  1  0
 48 45  1  0
 45 49  1  1
 50 46  1  0
 46 51  1  1
 48 52  1  0
 53 50  1  0
 52 53  1  0
 52 54  1  0
 52 55  1  0
 53 56  1  0
 53 57  1  0
M  CHG  1   1   1
M  END
$$$$

     RDKit          3D

 45 46  0  0  0  0  0  0  0  0999 V2000
   19.2680   14.6330    3.4070 N   0  0  0  0  0  4  0  0  0  0  0  0
   18.9740   14.9760    4.1900 C   0  0  0  0  0  0  0  0  0  0  0  0
   19.6280   14.5120    5.1740 O   0  0  0  0  0  0  0  0  0  0  0  0
   17.4220   15.1100    4.3740 C   0  0  0  0  0  0  0  0  0  0  0  0
   19.8950   15.8420    4.0210 C   0  0  0  0  0  0  0  0  0  0  0  0
   18.4692   14.9195    2.8232 H   0  0  0  0  0  0  0  0  0  0  0  0
   19.9623   14.1451    2.8232 H   0  0  0  0  0  0  0  0  0  0  0  0
   19.2840   17.1960    3.5310 C   0  0  2  0  0  0  0  0  0  0  0  0
   20.9672   15.8377    3.7753 H   0  0  0  0  0  0  0  0  0  0  0  0
   19.7072   15.7821    5.1032 H   0  0  0  0  0  0  0  0  0  0  0  0
   19.6240   17.4770    2.0690 C   0  0  0  0  0  0  0  0  0  0  0  0
   19.7840   18.3830    4.3360 N   0  0  0  0  0  4  0  0  0  0  0  0
   18.1980   17.0809    3.6625 H   0  0  0  0  0  0  0  0  0  0  0  0
   20.4710   18.1770    2.0175 H   0  0  0  0  0  0  0  0  0  0  0  0
   19.8951   16.5359    1.5682 H   0  0  0  0  0  0  0  0  0  0  0  0
   18.7508   17.9205    1.5682 H   0  0  0  0  0  0  0  0  0  0  0  0
   21.0040   18.1630    5.1920 C   0  0  0  0  0  0  0  0  0  0  0  0
   20.0027   19.1392    3.6717 H   0  0  0  0  0  0  0  0  0  0  0  0
   19.0256   18.5947    5.0001 H   0  0  0  0  0  0  0  0  0  0  0  0
   22.2070   18.7690    4.4980 C   0  0  0  0  0  0  0  0  0  0  0  0
   20.8604   18.6452    6.1702 H   0  0  0  0  0  0  0  0  0  0  0  0
   21.1643   17.0851    5.3419 H   0  0  0  0  0  0  0  0  0  0  0  0
   22.9223   19.1293    5.2520 H   0  0  0  0  0  0  0  0  0  0  0  0
   22.6901   18.0067    3.8691 H   0  0  0  0  0  0  0  0  0  0  0  0
   21.8819   19.6109    3.8691 H   0  0  0  0  0  0  0  0  0  0  0  0
   16.7660   16.0910    5.0950 C   0  0  0  0  0  0  0  0  0  0  0  0
   16.4210   14.2590    3.8480 C   0  0  0  0  0  0  0  0  0  0  0  0
   17.2330   17.2580    5.8690 C   0  0  0  0  0  0  0  0  0  0  0  0
   15.4100   15.8860    5.0510 O   0  0  0  0  0  0  0  0  0  0  0  0
   15.2280   14.7730    4.3020 C   0  0  0  0  0  0  0  0  0  0  0  0
   16.4930   13.0320    3.0110 C   0  0  0  0  0  0  0  0  0  0  0  0
   17.1470   17.0430    6.9444 H   0  0  0  0  0  0  0  0  0  0  0  0
   18.2839   17.4666    5.6197 H   0  0  0  0  0  0  0  0  0  0  0  0
   16.6162   18.1340    5.6197 H   0  0  0  0  0  0  0  0  0  0  0  0
   13.8670   14.2640    4.0380 C   0  0  0  0  0  0  0  0  0  0  0  0
   15.1000   12.6760    2.4430 C   0  0  0  0  0  0  0  0  0  0  0  0
   17.1898   13.2038    2.1774 H   0  0  0  0  0  0  0  0  0  0  0  0
   16.8441   12.1976    3.6358 H   0  0  0  0  0  0  0  0  0  0  0  0
   13.9710   12.8270    3.4860 C   0  0  0  0  0  0  0  0  0  0  0  0
   13.3683   14.9085    3.2991 H   0  0  0  0  0  0  0  0  0  0  0  0
   13.2809   14.2649    4.9689 H   0  0  0  0  0  0  0  0  0  0  0  0
   14.8858   13.3424    1.5945 H   0  0  0  0  0  0  0  0  0  0  0  0
   15.1279   11.6200    2.1362 H   0  0  0  0  0  0  0  0  0  0  0  0
   13.0147   12.5608    3.0121 H   0  0  0  0  0  0  0  0  0  0  0  0
   14.2030   12.1602    4.3295 H   0  0  0  0  0  0  0  0  0  0  0  0
  1  2  1  0
  2  3  2  0
  2  4  1  0
  1  5  1  0
  1  6  1  0
  1  7  1  0
  5  8  1  0
  5  9  1  0
  5 10  1  0
 11  8  1  0
 12  8  1  0
  8 13  1  6
 11 14  1  0
 11 15  1  0
 11 16  1  0
 17 12  1  0
 12 18  1  0
 12 19  1  0
 20 17  1  0
 17 21  1  0
 17 22  1  0
 20 23  1  0
 20 24  1  0
 20 25  1  0
 26  4  2  0
 27  4  1  0
 28 26  1  0
 29 26  1  0
 27 30  2  0
 31 27  1  0
 28 32  1  0
 28 33  1  0
 28 34  1  0
 30 29  1  0
 35 30  1  0
 36 31  1  0
 31 37  1  0
 31 38  1  0
 35 39  1  0
 35 40  1  0
 35 41  1  0
 39 36  1  0
 36 42  1  0
 36 43  1  0
 39 44  1  0
 39 45  1  0
M  CHG  2   1   1  12   1
M  END
$$$$

     RDKit          3D

 46 46  0  0  0  0  0  0  0  0999 V2000
   19.2680   14.6330    3.4070 N   0  0  0  0  0  4  0  0  0  0  0  0
   18.1280   14.7760    3.7560 C   0  0  0  0  0  0  0  0  0  0  0  0
   18.3820   15.7880    3.0390 O   0  0  0  0  0  0  0  0  0  0  0  0
   16.6720   14.3770    3.8170 C   0  0  0  0  0  0  0  0  0  0  0  0
   19.8950   15.8420    4.0210 C   0  0  0  0  0  0  0  0  0  0  0  0
   18.9402   14.0008    4.1512 H   0  0  0  0  0  0  0  0  0  0  0  0
   19.9623   14.1451    2.8232 H   0  0  0  0  0  0  0  0  0  0  0  0
   19.2840   17.1960    3.5310 C   0  0  2  0  0  0  0  0  0  0  0  0
   20.9672   15.8377    3.7753 H   0  0  0  0  0  0  0  0  0  0  0  0
   19.7072   15.7821    5.1032 H   0  0  0  0  0  0  0  0  0  0  0  0
   19.6240   17.4770    2.0690 C   0  0  0  0  0  0  0  0  0  0  0  0
   19.7840   18.3830    4.3360 N   0  0  0  0  0  4  0  0  0  0  0  0
   18.1980   17.0809    3.6625 H   0  0  0  0  0  0  0  0  0  0  0  0
   20.4710   18.1770    2.0175 H   0  0  0  0  0  0  0  0  0  0  0  0
   19.8951   16.5359    1.5682 H   0  0  0  0  0  0  0  0  0  0  0  0
   18.7508   17.9205    1.5682 H   0  0  0  0  0  0  0  0  0  0  0  0
   21.0040   18.1630    5.1920 C   0  0  0  0  0  0  0  0  0  0  0  0
   20.0027   19.1392    3.6717 H   0  0  0  0  0  0  0  0  0  0  0  0
   19.0256   18.5947    5.0001 H   0  0  0  0  0  0  0  0  0  0  0  0
   22.2070   18.7690    4.4980 C   0  0  0  0  0  0  0  0  0  0  0  0
   20.8604   18.6452    6.1702 H   0  0  0  0  0  0  0  0  0  0  0  0
   21.1643   17.0851    5.3419 H   0  0  0  0  0  0  0  0  0  0  0  0
   22.9223   19.1293    5.2520 H   0  0  0  0  0  0  0  0  0  0  0  0
   22.6901   18.0067    3.8691 H   0  0  0  0  0  0  0  0  0  0  0  0
   21.8819   19.6109    3.8691 H   0  0  0  0  0  0  0  0  0  0  0  0
   15.7670   15.0680    4.5330 C   0  0  0  0  0  0  0  0  0  0  0  0
   16.2240   13.2000    3.0730 C   0  0  0  0  0  0  0  0  0  0  0  0
   14.4290   14.7270    4.6080 N   0  0  0  0  0  0  0  0  0  0  0  0
   16.1210   16.2950    5.3350 C   0  0  0  0  0  0  0  0  0  0  0  0
   16.9340   12.4780    2.3810 O   0  0  0  0  0  0  0  0  0  0  0  0
   14.8900   12.9240    3.1940 N   0  0  0  0  0  0  0  0  0  0  0  0
   14.0460   13.6850    3.9460 C   0  0  0  0  0  0  0  0  0  0  0  0
   16.0542   16.0634    6.4083 H   0  0  0  0  0  0  0  0  0  0  0  0
   17.1465   16.6093    5.0909 H   0  0  0  0  0  0  0  0  0  0  0  0
   15.4206   17.1073    5.0909 H   0  0  0  0  0  0  0  0  0  0  0  0
   14.5075   12.1074    2.6963 H   0  0  0  0  0  0  0  0  0  0  0  0
   12.5860   13.2610    3.9890 C   0  0  0  0  0  0  0  0  0  0  0  0
   11.6850   14.4400    4.3450 C   0  0  0  0  0  0  0  0  0  0  0  0
   12.1660   12.6190    2.6690 C   0  0  0  0  0  0  0  0  0  0  0  0
   12.4728   12.5047    4.7797 H   0  0  0  0  0  0  0  0  0  0  0  0
   11.6154   14.5311    5.4390 H   0  0  0  0  0  0  0  0  0  0  0  0
   12.1087   15.3648    3.9263 H   0  0  0  0  0  0  0  0  0  0  0  0
   10.6814   14.2741    3.9263 H   0  0  0  0  0  0  0  0  0  0  0  0
   11.5743   11.7145    2.8731 H   0  0  0  0  0  0  0  0  0  0  0  0
   11.5590   13.3317    2.0914 H   0  0  0  0  0  0  0  0  0  0  0  0
   13.0622   12.3483    2.0914 H   0  0  0  0  0  0  0  0  0  0  0  0
  1  2  1  0
  2  3  2  0
  2  4  1  0
  1  5  1  0
  1  6  1  0
  1  7  1  0
  5  8  1  0
  5  9  1  0
  5 10  1  0
 11  8  1  0
 12  8  1  0
  8 13  1  6
 11 14  1  0
 11 15  1  0
 11 16  1  0
 17 12  1  0
 12 18  1  0
 12 19  1  0
 20 17  1  0
 17 21  1  0
 17 22  1  0
 20 23  1  0
 20 24  1  0
 20 25  1  0
  4 26  2  0
 27  4  1  0
 26 28  1  0
 29 26  1  0
 30 27  2  0
 31 27  1  0
 28 32  2  0
 29 33  1  0
 29 34  1  0
 29 35  1  0
 31 32  1  0
 31 36  1  0
 37 32  1  0
 37 38  1  0
 39 37  1  0
 37 40  1  0
 38 41  1  0
 38 42  1  0
 38 43  1  0
 39 44  1  0
 39 45  1  0
 39 46  1  0
M  CHG  2   1   1  12   1
M  END
$$$$

     RDKit          3D

 37 39  0  0  0  0  0  0  0  0999 V2000
   19.5890   15.8190    3.2250 N   0  0  0  0  0  0  0  0  0  0  0  0
   18.5590   15.5100    3.6230 C   0  0  0  0  0  0  0  0  0  0  0  0
   19.4130   14.5810    3.7060 O   0  0  0  0  0  0  0  0  0  0  0  0
   17.1090   15.0890    3.9660 C   0  0  0  0  0  0  0  0  0  0  0  0
   20.2770   15.9430    4.4330 C   0  0  0  0  0  0  0  0  0  0  0  0
   19.7069   16.5307    2.4898 H   0  0  0  0  0  0  0  0  0  0  0  0
   20.0940   14.9960    5.3590 N   0  0  0  0  0  0  0  0  0  0  0  0
   21.1240   16.9900    4.6720 C   0  0  0  0  0  0  0  0  0  0  0  0
   20.7710   15.1310    6.5190 C   0  0  0  0  0  0  0  0  0  0  0  0
   21.7490   17.0400    5.9000 C   0  0  0  0  0  0  0  0  0  0  0  0
   21.5530   18.1460    3.8470 C   0  0  0  0  0  0  0  0  0  0  0  0
   21.6160   16.1210    6.8480 N   0  0  0  0  0  0  0  0  0  0  0  0
   20.6137   14.3471    7.2745 H   0  0  0  0  0  0  0  0  0  0  0  0
   22.5520   18.2050    6.0380 N   0  0  0  0  0  0  0  0  0  0  0  0
   22.7950   18.5890    4.6500 C   0  0  0  0  0  0  0  0  0  0  0  0
   21.8140   17.8437    2.8221 H   0  0  0  0  0  0  0  0  0  0  0  0
   20.7895   18.9242    3.7005 H   0  0  0  0  0  0  0  0  0  0  0  0
   22.8800   18.6631    6.9002 H   0  0  0  0  0  0  0  0  0  0  0  0
   23.6943   18.0836    4.2680 H   0  0  0  0  0  0  0  0  0  0  0  0
   22.9597   19.6729    4.5608 H   0  0  0  0  0  0  0  0  0  0  0  0
   16.5560   14.0680    3.2820 C   0  0  0  0  0  0  0  0  0  0  0  0
   16.3630   15.8790    5.0180 C   0  0  2  0  0  0  0  0  0  0  0  0
   15.1340   13.6360    3.4450 C   0  0  0  0  0  0  0  0  0  0  0  0
   17.1857   13.5222    2.5640 H   0  0  0  0  0  0  0  0  0  0  0  0
   17.1750   16.0690    6.3060 C   0  0  0  0  0  0  0  0  0  0  0  0
   15.0120   15.2250    5.3890 C   0  0  0  0  0  0  0  0  0  0  0  0
   16.1850   16.8625    4.5586 H   0  0  0  0  0  0  0  0  0  0  0  0
   14.2840   14.6840    4.1620 C   0  0  0  0  0  0  0  0  0  0  0  0
   15.1129   12.7043    4.0294 H   0  0  0  0  0  0  0  0  0  0  0  0
   14.7105   13.4919    2.4400 H   0  0  0  0  0  0  0  0  0  0  0  0
   16.5214   15.9161    7.1774 H   0  0  0  0  0  0  0  0  0  0  0  0
   17.9975   15.3391    6.3320 H   0  0  0  0  0  0  0  0  0  0  0  0
   17.5882   17.0881    6.3320 H   0  0  0  0  0  0  0  0  0  0  0  0
   15.1986   14.3949    6.0862 H   0  0  0  0  0  0  0  0  0  0  0  0
   14.3762   15.9954    5.8496 H   0  0  0  0  0  0  0  0  0  0  0  0
   13.3361   14.2244    4.4786 H   0  0  0  0  0  0  0  0  0  0  0  0
   14.0931   15.5171    3.4695 H   0  0  0  0  0  0  0  0  0  0  0  0
  1  2  1  0
  2  3  2  0
  2  4  1  0
  5  1  1  0
  1  6  1  0
  7  5  2  0
  8  5  1  0
  9  7  1  0
  8 10  2  0
 11  8  1  0
 12  9  2  0
  9 13  1  0
 10 12  1  0
 14 10  1  0
 15 11  1  0
 11 16  1  0
 11 17  1  0
 14 15  1  0
 14 18  1  0
 15 19  1  0
 15 20  1  0
  4 21  2  0
  4 22  1  0
 21 23  1  0
 21 24  1  0
 22 25  1  0
 26 22  1  0
 22 27  1  6
 23 28  1  0
 23 29  1  0
 23 30  1  0
 25 31  1  0
 25 32  1  0
 25 33  1  0
 28 26  1  0
 26 34  1  0
 26 35  1  0
 28 36  1  0
 28 37  1  0
M  END
$$$$

     RDKit          3D

 43 45  0  0  0  0  0  0  0  0999 V2000
   19.5890   15.8190    3.2250 N   0  0  0  0  0  0  0  0  0  0  0  0
   19.5280   17.0460    2.6710 C   0  0  0  0  0  0  0  0  0  0  0  0
   19.5090   17.6320    1.5510 O   0  0  0  0  0  0  0  0  0  0  0  0
   19.5770   17.9920    3.8720 C   0  0  0  0  0  0  0  0  0  0  0  0
   20.2770   15.9430    4.4330 C   0  0  0  0  0  0  0  0  0  0  0  0
   18.9634   15.0158    3.0687 H   0  0  0  0  0  0  0  0  0  0  0  0
   20.0940   14.9960    5.3590 N   0  0  0  0  0  0  0  0  0  0  0  0
   21.1240   16.9900    4.6720 C   0  0  0  0  0  0  0  0  0  0  0  0
   20.7710   15.1310    6.5190 C   0  0  0  0  0  0  0  0  0  0  0  0
   21.7490   17.0400    5.9000 C   0  0  0  0  0  0  0  0  0  0  0  0
   21.5530   18.1460    3.8470 C   0  0  0  0  0  0  0  0  0  0  0  0
   21.6160   16.1210    6.8480 N   0  0  0  0  0  0  0  0  0  0  0  0
   20.6137   14.3471    7.2745 H   0  0  0  0  0  0  0  0  0  0  0  0
   22.5520   18.2050    6.0380 N   0  0  0  0  0  0  0  0  0  0  0  0
   22.7950   18.5890    4.6500 C   0  0  0  0  0  0  0  0  0  0  0  0
   21.8140   17.8437    2.8221 H   0  0  0  0  0  0  0  0  0  0  0  0
   20.7895   18.9242    3.7005 H   0  0  0  0  0  0  0  0  0  0  0  0
   22.8800   18.6631    6.9002 H   0  0  0  0  0  0  0  0  0  0  0  0
   23.6943   18.0836    4.2680 H   0  0  0  0  0  0  0  0  0  0  0  0
   22.9597   19.6729    4.5608 H   0  0  0  0  0  0  0  0  0  0  0  0
   19.3420   17.3690    5.2470 C   0  0  0  0  0  0  0  0  0  0  0  0
   18.8079   18.7636    3.7200 H   0  0  0  0  0  0  0  0  0  0  0  0
   20.6093   18.3709    3.8992 H   0  0  0  0  0  0  0  0  0  0  0  0
   17.8970   17.5420    5.7160 C   0  0  0  0  0  0  0  0  0  0  0  0
   20.0114   17.8515    5.9744 H   0  0  0  0  0  0  0  0  0  0  0  0
   19.5472   16.2910    5.1706 H   0  0  0  0  0  0  0  0  0  0  0  0
   17.0630   15.9370    6.0320 S   0  0  0  0  0  0  0  0  0  0  0  0
   17.3367   18.0838    4.9398 H   0  0  0  0  0  0  0  0  0  0  0  0
   17.9179   18.1000    6.6638 H   0  0  0  0  0  0  0  0  0  0  0  0
   15.5850   16.1090    4.9860 C   0  0  0  0  0  0  0  0  0  0  0  0
   15.2330   14.8660    4.2100 C   0  0  0  0  0  0  0  0  0  0  0  0
   14.7325   16.3661    5.6319 H   0  0  0  0  0  0  0  0  0  0  0  0
   15.8088   16.8921    4.2466 H   0  0  0  0  0  0  0  0  0  0  0  0
   16.2000   14.2110    3.4310 C   0  0  0  0  0  0  0  0  0  0  0  0
   13.9340   14.3390    4.2580 C   0  0  0  0  0  0  0  0  0  0  0  0
   15.8730   13.0580    2.7160 C   0  0  0  0  0  0  0  0  0  0  0  0
   17.2240   14.6100    3.3838 H   0  0  0  0  0  0  0  0  0  0  0  0
   13.6100   13.1850    3.5440 C   0  0  0  0  0  0  0  0  0  0  0  0
   13.1643   14.8398    4.8637 H   0  0  0  0  0  0  0  0  0  0  0  0
   14.5780   12.5460    2.7700 C   0  0  0  0  0  0  0  0  0  0  0  0
   16.6385   12.5526    2.1089 H   0  0  0  0  0  0  0  0  0  0  0  0
   12.5890   12.7785    3.5917 H   0  0  0  0  0  0  0  0  0  0  0  0
   14.3199   11.6394    2.2031 H   0  0  0  0  0  0  0  0  0  0  0  0
  1  2  1  0
  2  3  2  0
  2  4  1  0
  5  1  1  0
  1  6  1  0
  7  5  2  0
  8  5  1  0
  9  7  1  0
  8 10  2  0
 11  8  1  0
 12  9  2  0
  9 13  1  0
 10 12  1  0
 14 10  1  0
 15 11  1  0
 11 16  1  0
 11 17  1  0
 14 15  1  0
 14 18  1  0
 15 19  1  0
 15 20  1  0
  4 21  1  0
  4 22  1  0
  4 23  1  0
 21 24  1  0
 21 25  1  0
 21 26  1  0
 24 27  1  0
 24 28  1  0
 24 29  1  0
 30 27  1  0
 31 30  1  0
 30 32  1  0
 30 33  1  0
 34 31  2  0
 35 31  1  0
 36 34  1  0
 34 37  1  0
 35 38  2  0
 35 39  1  0
 40 36  2  0
 36 41  1  0
 38 40  1  0
 38 42  1  0
 40 43  1  0
M  END
$$$$

     RDKit          3D

 46 46  0  0  0  0  0  0  0  0999 V2000
   19.4900   15.0220    3.4310 N   0  0  0  0  0  4  0  0  0  0  0  0
   19.5280   17.0460    2.6710 C   0  0  0  0  0  0  0  0  0  0  0  0
   19.5090   17.6320    1.5510 O   0  0  0  0  0  0  0  0  0  0  0  0
   19.5770   17.9920    3.8720 C   0  0  0  0  0  0  0  0  0  0  0  0
   18.7710   14.8870    4.7250 C   0  0  0  0  0  0  0  0  0  0  0  0
   20.4869   15.2092    3.6100 H   0  0  0  0  0  0  0  0  0  0  0  0
   19.3958   14.1486    2.8932 H   0  0  0  0  0  0  0  0  0  0  0  0
   19.5060   15.6850    5.7890 C   0  0  0  0  0  0  0  0  0  0  0  0
   18.7362   13.8273    5.0180 H   0  0  0  0  0  0  0  0  0  0  0  0
   17.7445   15.2681    4.6196 H   0  0  0  0  0  0  0  0  0  0  0  0
   21.0030   15.3630    5.8010 C   0  0  1  0  0  0  0  0  0  0  0  0
   19.0808   15.4429    6.7742 H   0  0  0  0  0  0  0  0  0  0  0  0
   19.3858   16.7545    5.5615 H   0  0  0  0  0  0  0  0  0  0  0  0
   21.8170   16.6540    5.6290 C   0  0  0  0  0  0  0  0  0  0  0  0
   21.2800   14.6710    7.0130 O   0  0  0  0  0  0  0  0  0  0  0  0
   21.2933   14.7151    4.9608 H   0  0  0  0  0  0  0  0  0  0  0  0
   22.6070   17.0850    6.4560 O   0  0  0  0  0  0  0  0  0  0  0  0
   21.4960   17.2440    4.4440 O   0  0  0  0  0  0  0  0  0  0  0  0
   21.0488   15.2486    7.7831 H   0  0  0  0  0  0  0  0  0  0  0  0
   22.0330   18.5610    4.2850 C   0  0  0  0  0  0  0  0  0  0  0  0
   22.2141   19.0051    5.2749 H   0  0  0  0  0  0  0  0  0  0  0  0
   22.9805   18.5060    3.7289 H   0  0  0  0  0  0  0  0  0  0  0  0
   21.3172   19.1842    3.7289 H   0  0  0  0  0  0  0  0  0  0  0  0
   19.3420   17.3690    5.2470 C   0  0  0  0  0  0  0  0  0  0  0  0
   18.8079   18.7636    3.7200 H   0  0  0  0  0  0  0  0  0  0  0  0
   20.6093   18.3709    3.8992 H   0  0  0  0  0  0  0  0  0  0  0  0
   17.8970   17.5420    5.7160 C   0  0  0  0  0  0  0  0  0  0  0  0
   20.0114   17.8515    5.9744 H   0  0  0  0  0  0  0  0  0  0  0  0
   19.5472   16.2910    5.1706 H   0  0  0  0  0  0  0  0  0  0  0  0
   17.0630   15.9370    6.0320 S   0  0  0  0  0  0  0  0  0  0  0  0
   17.3367   18.0838    4.9398 H   0  0  0  0  0  0  0  0  0  0  0  0
   17.9179   18.1000    6.6638 H   0  0  0  0  0  0  0  0  0  0  0  0
   15.5850   16.1090    4.9860 C   0  0  0  0  0  0  0  0  0  0  0  0
   15.2330   14.8660    4.2100 C   0  0  0  0  0  0  0  0  0  0  0  0
   14.7325   16.3661    5.6319 H   0  0  0  0  0  0  0  0  0  0  0  0
   15.8088   16.8921    4.2466 H   0  0  0  0  0  0  0  0  0  0  0  0
   16.2000   14.2110    3.4310 C   0  0  0  0  0  0  0  0  0  0  0  0
   13.9340   14.3390    4.2580 C   0  0  0  0  0  0  0  0  0  0  0  0
   15.8730   13.0580    2.7160 C   0  0  0  0  0  0  0  0  0  0  0  0
   17.2240   14.6100    3.3838 H   0  0  0  0  0  0  0  0  0  0  0  0
   13.6100   13.1850    3.5440 C   0  0  0  0  0  0  0  0  0  0  0  0
   13.1643   14.8398    4.8637 H   0  0  0  0  0  0  0  0  0  0  0  0
   14.5780   12.5460    2.7700 C   0  0  0  0  0  0  0  0  0  0  0  0
   16.6385   12.5526    2.1089 H   0  0  0  0  0  0  0  0  0  0  0  0
   12.5890   12.7785    3.5917 H   0  0  0  0  0  0  0  0  0  0  0  0
   14.3199   11.6394    2.2031 H   0  0  0  0  0  0  0  0  0  0  0  0
  1  2  1  0
  2  3  2  0
  2  4  1  0
  1  5  1  0
  1  6  1  0
  1  7  1  0
  5  8  1  0
  5  9  1  0
  5 10  1  0
  8 11  1  0
  8 12  1  0
  8 13  1  0
 14 11  1  0
 15 11  1  0
 11 16  1  6
 17 14  2  0
 18 14  1  0
 15 19  1  0
 18 20  1  0
 20 21  1  0
 20 22  1  0
 20 23  1  0
  4 24  1  0
  4 25  1  0
  4 26  1  0
 24 27  1  0
 24 28  1  0
 24 29  1  0
 27 30  1  0
 27 31  1  0
 27 32  1  0
 33 30  1  0
 34 33  1  0
 33 35  1  0
 33 36  1  0
 37 34  2  0
 38 34  1  0
 39 37  1  0
 37 40  1  0
 38 41  2  0
 38 42  1  0
 43 39  2  0
 39 44  1  0
 41 43  1  0
 41 45  1  0
 43 46  1  0
M  CHG  1   1   1
M  END
$$$$

     RDKit          3D

 46 46  0  0  0  0  0  0  0  0999 V2000
   19.4900   15.0220    3.4310 N   0  0  0  0  0  4  0  0  0  0  0  0
   19.4030   16.2710    3.5070 C   0  0  0  0  0  0  0  0  0  0  0  0
   19.2020   17.0080    2.5010 O   0  0  0  0  0  0  0  0  0  0  0  0
   19.2580   16.9680    4.8590 C   0  0  0  0  0  0  0  0  0  0  0  0
   18.7710   14.8870    4.7250 C   0  0  0  0  0  0  0  0  0  0  0  0
   20.4869   15.2092    3.6100 H   0  0  0  0  0  0  0  0  0  0  0  0
   19.3958   14.1486    2.8932 H   0  0  0  0  0  0  0  0  0  0  0  0
   19.5060   15.6850    5.7890 C   0  0  0  0  0  0  0  0  0  0  0  0
   18.7362   13.8273    5.0180 H   0  0  0  0  0  0  0  0  0  0  0  0
   17.7445   15.2681    4.6196 H   0  0  0  0  0  0  0  0  0  0  0  0
   21.0030   15.3630    5.8010 C   0  0  1  0  0  0  0  0  0  0  0  0
   19.0808   15.4429    6.7742 H   0  0  0  0  0  0  0  0  0  0  0  0
   19.3858   16.7545    5.5615 H   0  0  0  0  0  0  0  0  0  0  0  0
   21.8170   16.6540    5.6290 C   0  0  0  0  0  0  0  0  0  0  0  0
   21.2800   14.6710    7.0130 O   0  0  0  0  0  0  0  0  0  0  0  0
   21.2933   14.7151    4.9608 H   0  0  0  0  0  0  0  0  0  0  0  0
   22.6070   17.0850    6.4560 O   0  0  0  0  0  0  0  0  0  0  0  0
   21.4960   17.2440    4.4440 O   0  0  0  0  0  0  0  0  0  0  0  0
   21.0488   15.2486    7.7831 H   0  0  0  0  0  0  0  0  0  0  0  0
   22.0330   18.5610    4.2850 C   0  0  0  0  0  0  0  0  0  0  0  0
   22.2141   19.0051    5.2749 H   0  0  0  0  0  0  0  0  0  0  0  0
   22.9805   18.5060    3.7289 H   0  0  0  0  0  0  0  0  0  0  0  0
   21.3172   19.1842    3.7289 H   0  0  0  0  0  0  0  0  0  0  0  0
   17.8160   16.9080    5.3330 C   0  0  0  0  0  0  0  0  0  0  0  0
   19.5634   18.0200    4.7592 H   0  0  0  0  0  0  0  0  0  0  0  0
   19.8972   16.4574    5.5944 H   0  0  0  0  0  0  0  0  0  0  0  0
   17.0320   15.9960    4.5220 N   0  0  0  0  0  0  0  0  0  0  0  0
   17.3755   17.9139    5.2685 H   0  0  0  0  0  0  0  0  0  0  0  0
   17.8067   16.5448    6.3713 H   0  0  0  0  0  0  0  0  0  0  0  0
   15.8800   15.3910    4.9640 C   0  0  0  0  0  0  0  0  0  0  0  0
   17.3554   15.7914    3.5657 H   0  0  0  0  0  0  0  0  0  0  0  0
   15.5270   15.3600    6.1400 O   0  0  0  0  0  0  0  0  0  0  0  0
   15.0680   14.7700    3.8330 C   0  0  0  0  0  0  0  0  0  0  0  0
   13.7940   14.0670    4.3120 C   0  0  0  0  0  0  0  0  0  0  0  0
   15.8550   13.7020    3.0510 C   0  0  0  0  0  0  0  0  0  0  0  0
   14.8220   15.6344    3.1987 H   0  0  0  0  0  0  0  0  0  0  0  0
   13.5940   12.9360    3.3170 C   0  0  0  0  0  0  0  0  0  0  0  0
   13.9260   13.6719    5.3301 H   0  0  0  0  0  0  0  0  0  0  0  0
   12.9299   14.7462    4.3562 H   0  0  0  0  0  0  0  0  0  0  0  0
   15.0080   12.4340    3.0930 C   0  0  0  0  0  0  0  0  0  0  0  0
   16.8314   13.5243    3.5253 H   0  0  0  0  0  0  0  0  0  0  0  0
   16.0462   14.0224    2.0162 H   0  0  0  0  0  0  0  0  0  0  0  0
   12.9547   12.1460    3.7379 H   0  0  0  0  0  0  0  0  0  0  0  0
   13.0919   13.2532    2.3911 H   0  0  0  0  0  0  0  0  0  0  0  0
   15.3251   11.7806    3.9191 H   0  0  0  0  0  0  0  0  0  0  0  0
   15.1013   11.8353    2.1749 H   0  0  0  0  0  0  0  0  0  0  0  0
  1  2  1  0
  2  3  2  0
  2  4  1  0
  1  5  1  0
  1  6  1  0
  1  7  1  0
  5  8  1  0
  5  9  1  0
  5 10  1  0
  8 11  1  0
  8 12  1  0
  8 13  1  0
 14 11  1  0
 15 11  1  0
 11 16  1  6
 17 14  2  0
 18 14  1  0
 15 19  1  0
 18 20  1  0
 20 21  1  0
 20 22  1  0
 20 23  1  0
  4 24  1  0
  4 25  1  0
  4 26  1  0
 24 27  1  0
 24 28  1  0
 24 29  1  0
 27 30  1  0
 27 31  1  0
 30 32  2  0
 33 30  1  0
 34 33  1  0
 35 33  1  0
 33 36  1  0
 37 34  1  0
 34 38  1  0
 34 39  1  0
 35 40  1  0
 35 41  1  0
 35 42  1  0
 40 37  1  0
 37 43  1  0
 37 44  1  0
 40 45  1  0
 40 46  1  0
M  CHG  1   1   1
M  END
$$$$

     RDKit          3D

 36 37  0  0  0  0  0  0  0  0999 V2000
   19.5710   15.8590    3.2210 N   0  0  0  0  0  4  0  0  0  0  0  0
   18.9800   14.8700    3.9880 C   0  0  0  0  0  0  0  0  0  0  0  0
   19.5480   14.4870    5.0600 O   0  0  0  0  0  0  0  0  0  0  0  0
   17.4900   14.5130    3.8500 C   0  0  0  0  0  0  0  0  0  0  0  0
   19.4560   17.0020    4.1510 C   0  0  0  0  0  0  0  0  0  0  0  0
   18.7304   15.8133    2.6276 H   0  0  0  0  0  0  0  0  0  0  0  0
   20.4039   15.9817    2.6276 H   0  0  0  0  0  0  0  0  0  0  0  0
   20.6820   17.1190    4.9700 C   0  0  0  0  0  0  0  0  0  0  0  0
   18.5907   16.8469    4.8122 H   0  0  0  0  0  0  0  0  0  0  0  0
   19.3231   17.9262    3.5694 H   0  0  0  0  0  0  0  0  0  0  0  0
   21.0970   16.2820    5.9940 C   0  0  0  0  0  0  0  0  0  0  0  0
   21.6880   18.1260    4.8700 C   0  0  0  0  0  0  0  0  0  0  0  0
   20.5590   15.0460    6.6040 C   0  0  0  0  0  0  0  0  0  0  0  0
   22.2690   16.7280    6.5180 O   0  0  0  0  0  0  0  0  0  0  0  0
   22.6270   17.8390    5.8330 C   0  0  0  0  0  0  0  0  0  0  0  0
   21.7085   18.9671    4.1614 H   0  0  0  0  0  0  0  0  0  0  0  0
   20.5963   15.1317    7.7000 H   0  0  0  0  0  0  0  0  0  0  0  0
   19.5168   14.9021    6.2827 H   0  0  0  0  0  0  0  0  0  0  0  0
   21.1639   14.1852    6.2827 H   0  0  0  0  0  0  0  0  0  0  0  0
   23.5375   18.4274    6.0195 H   0  0  0  0  0  0  0  0  0  0  0  0
   16.4320   15.2020    4.3870 N   0  0  0  0  0  0  0  0  0  0  0  0
   17.1230   13.4590    3.1580 N   0  0  0  0  0  0  0  0  0  0  0  0
   15.3020   14.5500    3.9720 C   0  0  0  0  0  0  0  0  0  0  0  0
   16.4400   16.4270    5.1590 C   0  0  0  0  0  0  0  0  0  0  0  0
   15.7530   13.4570    3.2380 N   0  0  0  0  0  0  0  0  0  0  0  0
   14.1400   14.8630    4.1880 O   0  0  0  0  0  0  0  0  0  0  0  0
   16.7990   16.1750    6.6140 C   0  0  0  0  0  0  0  0  0  0  0  0
   17.1784   17.1169    4.7244 H   0  0  0  0  0  0  0  0  0  0  0  0
   15.4286   16.8583    5.1262 H   0  0  0  0  0  0  0  0  0  0  0  0
   14.9510   12.4940    2.5410 C   0  0  0  0  0  0  0  0  0  0  0  0
   16.0729   16.6847    7.2644 H   0  0  0  0  0  0  0  0  0  0  0  0
   16.7760   15.0938    6.8154 H   0  0  0  0  0  0  0  0  0  0  0  0
   17.8080   16.5641    6.8154 H   0  0  0  0  0  0  0  0  0  0  0  0
   14.4234   11.8604    3.2691 H   0  0  0  0  0  0  0  0  0  0  0  0
   14.2171   13.0162    1.9096 H   0  0  0  0  0  0  0  0  0  0  0  0
   15.5974   11.8667    1.9096 H   0  0  0  0  0  0  0  0  0  0  0  0
  1  2  1  0
  2  3  2  0
  2  4  1  0
  1  5  1  0
  1  6  1  0
  1  7  1  0
  5  8  1  0
  5  9  1  0
  5 10  1  0
  8 11  2  0
  8 12  1  0
 11 13  1  0
 14 11  1  0
 12 15  2  0
 12 16  1  0
 13 17  1  0
 13 18  1  0
 13 19  1  0
 15 14  1  0
 15 20  1  0
  4 21  1  0
 22  4  2  0
 23 21  1  0
 24 21  1  0
 25 22  1  0
 23 25  1  0
 26 23  2  0
 24 27  1  0
 24 28  1  0
 24 29  1  0
 30 25  1  0
 27 31  1  0
 27 32  1  0
 27 33  1  0
 30 34  1  0
 30 35  1  0
 30 36  1  0
M  CHG  1   1   1
M  END
$$$$

     RDKit          3D

 37 38  0  0  0  0  0  0  0  0999 V2000
   19.5710   15.8590    3.2210 N   0  0  0  0  0  4  0  0  0  0  0  0
   18.5590   15.5100    3.6230 C   0  0  0  0  0  0  0  0  0  0  0  0
   19.4130   14.5810    3.7060 O   0  0  0  0  0  0  0  0  0  0  0  0
   17.1090   15.0890    3.9660 C   0  0  0  0  0  0  0  0  0  0  0  0
   19.4560   17.0020    4.1510 C   0  0  0  0  0  0  0  0  0  0  0  0
   18.7304   15.8133    2.6276 H   0  0  0  0  0  0  0  0  0  0  0  0
   20.4039   15.9817    2.6276 H   0  0  0  0  0  0  0  0  0  0  0  0
   20.6820   17.1190    4.9700 C   0  0  0  0  0  0  0  0  0  0  0  0
   18.5907   16.8469    4.8122 H   0  0  0  0  0  0  0  0  0  0  0  0
   19.3231   17.9262    3.5694 H   0  0  0  0  0  0  0  0  0  0  0  0
   21.0970   16.2820    5.9940 C   0  0  0  0  0  0  0  0  0  0  0  0
   21.6880   18.1260    4.8700 C   0  0  0  0  0  0  0  0  0  0  0  0
   20.5590   15.0460    6.6040 C   0  0  0  0  0  0  0  0  0  0  0  0
   22.2690   16.7280    6.5180 O   0  0  0  0  0  0  0  0  0  0  0  0
   22.6270   17.8390    5.8330 C   0  0  0  0  0  0  0  0  0  0  0  0
   21.7085   18.9671    4.1614 H   0  0  0  0  0  0  0  0  0  0  0  0
   20.5963   15.1317    7.7000 H   0  0  0  0  0  0  0  0  0  0  0  0
   19.5168   14.9021    6.2827 H   0  0  0  0  0  0  0  0  0  0  0  0
   21.1639   14.1852    6.2827 H   0  0  0  0  0  0  0  0  0  0  0  0
   23.5375   18.4274    6.0195 H   0  0  0  0  0  0  0  0  0  0  0  0
   16.5560   14.0680    3.2820 C   0  0  0  0  0  0  0  0  0  0  0  0
   16.3630   15.8790    5.0180 C   0  0  2  0  0  0  0  0  0  0  0  0
   15.1340   13.6360    3.4450 C   0  0  0  0  0  0  0  0  0  0  0  0
   17.1857   13.5222    2.5640 H   0  0  0  0  0  0  0  0  0  0  0  0
   17.1750   16.0690    6.3060 C   0  0  0  0  0  0  0  0  0  0  0  0
   15.0120   15.2250    5.3890 C   0  0  0  0  0  0  0  0  0  0  0  0
   16.1850   16.8625    4.5586 H   0  0  0  0  0  0  0  0  0  0  0  0
   14.2840   14.6840    4.1620 C   0  0  0  0  0  0  0  0  0  0  0  0
   15.1129   12.7043    4.0294 H   0  0  0  0  0  0  0  0  0  0  0  0
   14.7105   13.4919    2.4400 H   0  0  0  0  0  0  0  0  0  0  0  0
   16.5214   15.9161    7.1774 H   0  0  0  0  0  0  0  0  0  0  0  0
   17.9975   15.3391    6.3320 H   0  0  0  0  0  0  0  0  0  0  0  0
   17.5882   17.0881    6.3320 H   0  0  0  0  0  0  0  0  0  0  0  0
   15.1986   14.3949    6.0862 H   0  0  0  0  0  0  0  0  0  0  0  0
   14.3762   15.9954    5.8496 H   0  0  0  0  0  0  0  0  0  0  0  0
   13.3361   14.2244    4.4786 H   0  0  0  0  0  0  0  0  0  0  0  0
   14.0931   15.5171    3.4695 H   0  0  0  0  0  0  0  0  0  0  0  0
  1  2  1  0
  2  3  2  0
  2  4  1  0
  1  5  1  0
  1  6  1  0
  1  7  1  0
  5  8  1  0
  5  9  1  0
  5 10  1  0
  8 11  2  0
  8 12  1  0
 11 13  1  0
 14 11  1  0
 12 15  2  0
 12 16  1  0
 13 17  1  0
 13 18  1  0
 13 19  1  0
 15 14  1  0
 15 20  1  0
  4 21  2  0
  4 22  1  0
 21 23  1  0
 21 24  1  0
 22 25  1  0
 26 22  1  0
 22 27  1  6
 23 28  1  0
 23 29  1  0
 23 30  1  0
 25 31  1  0
 25 32  1  0
 25 33  1  0
 28 26  1  0
 26 34  1  0
 26 35  1  0
 28 36  1  0
 28 37  1  0
M  CHG  1   1   1
M  END
$$$$

     RDKit          3D

 49 51  0  0  0  0  0  0  0  0999 V2000
   19.5710   15.8590    3.2210 N   0  0  0  0  0  4  0  0  0  0  0  0
   19.1780   15.3690    3.8530 C   0  0  0  0  0  0  0  0  0  0  0  0
   19.9540   15.0120    4.7930 O   0  0  0  0  0  0  0  0  0  0  0  0
   17.7500   14.9400    3.9760 C   0  0  0  0  0  0  0  0  0  0  0  0
   19.4560   17.0020    4.1510 C   0  0  0  0  0  0  0  0  0  0  0  0
   18.7304   15.8133    2.6276 H   0  0  0  0  0  0  0  0  0  0  0  0
   20.4039   15.9817    2.6276 H   0  0  0  0  0  0  0  0  0  0  0  0
   20.6820   17.1190    4.9700 C   0  0  0  0  0  0  0  0  0  0  0  0
   18.5907   16.8469    4.8122 H   0  0  0  0  0  0  0  0  0  0  0  0
   19.3231   17.9262    3.5694 H   0  0  0  0  0  0  0  0  0  0  0  0
   21.0970   16.2820    5.9940 C   0  0  0  0  0  0  0  0  0  0  0  0
   21.6880   18.1260    4.8700 C   0  0  0  0  0  0  0  0  0  0  0  0
   20.5590   15.0460    6.6040 C   0  0  0  0  0  0  0  0  0  0  0  0
   22.2690   16.7280    6.5180 O   0  0  0  0  0  0  0  0  0  0  0  0
   22.6270   17.8390    5.8330 C   0  0  0  0  0  0  0  0  0  0  0  0
   21.7085   18.9671    4.1614 H   0  0  0  0  0  0  0  0  0  0  0  0
   20.5963   15.1317    7.7000 H   0  0  0  0  0  0  0  0  0  0  0  0
   19.5168   14.9021    6.2827 H   0  0  0  0  0  0  0  0  0  0  0  0
   21.1639   14.1852    6.2827 H   0  0  0  0  0  0  0  0  0  0  0  0
   23.5375   18.4274    6.0195 H   0  0  0  0  0  0  0  0  0  0  0  0
   17.3130   13.8260    3.2900 C   0  0  0  0  0  0  0  0  0  0  0  0
   16.7740   15.5670    4.7290 C   0  0  0  0  0  0  0  0  0  0  0  0
   16.0420   13.3620    3.3010 N   0  0  0  0  0  0  0  0  0  0  0  0
   18.0518   13.2744    2.6901 H   0  0  0  0  0  0  0  0  0  0  0  0
   15.4850   15.1240    4.7580 N   0  0  0  0  0  0  0  0  0  0  0  0
   17.0410   16.7810    5.5700 C   0  0  0  0  0  0  0  0  0  0  0  0
   15.1600   14.0400    4.0400 C   0  0  0  0  0  0  0  0  0  0  0  0
   16.9814   16.5100    6.6344 H   0  0  0  0  0  0  0  0  0  0  0  0
   18.0458   17.1685    5.3460 H   0  0  0  0  0  0  0  0  0  0  0  0
   16.2915   17.5543    5.3460 H   0  0  0  0  0  0  0  0  0  0  0  0
   13.8200   13.6110    4.0450 N   0  0  0  0  0  0  0  0  0  0  0  0
   12.9000   14.7010    4.3920 C   0  0  0  0  0  0  0  0  0  0  0  0
   13.5010   12.8060    2.8610 C   0  0  0  0  0  0  0  0  0  0  0  0
   11.4510   14.1930    4.4460 C   0  0  0  0  0  0  0  0  0  0  0  0
   12.9766   15.4935    3.6330 H   0  0  0  0  0  0  0  0  0  0  0  0
   13.1742   15.0930    5.3825 H   0  0  0  0  0  0  0  0  0  0  0  0
   12.0490   12.3040    2.9200 C   0  0  0  0  0  0  0  0  0  0  0  0
   13.6338   13.4218    1.9592 H   0  0  0  0  0  0  0  0  0  0  0  0
   14.1747   11.9369    2.8324 H   0  0  0  0  0  0  0  0  0  0  0  0
   11.0900   13.4700    3.1500 N   0  0  0  0  0  4  0  0  0  0  0  0
   10.7725   15.0476    4.5850 H   0  0  0  0  0  0  0  0  0  0  0  0
   11.3512   13.4897    5.2859 H   0  0  0  0  0  0  0  0  0  0  0  0
   11.7976   11.8103    1.9697 H   0  0  0  0  0  0  0  0  0  0  0  0
   11.9516   11.5929    3.7536 H   0  0  0  0  0  0  0  0  0  0  0  0
    9.6590   13.0430    3.1180 C   0  0  0  0  0  0  0  0  0  0  0  0
   11.1980   14.1340    2.3701 H   0  0  0  0  0  0  0  0  0  0  0  0
    9.2864   12.9318    4.1470 H   0  0  0  0  0  0  0  0  0  0  0  0
    9.0616   13.8020    2.5917 H   0  0  0  0  0  0  0  0  0  0  0  0
    9.5752   12.0807    2.5917 H   0  0  0  0  0  0  0  0  0  0  0  0
  1  2  1  0
  2  3  2  0
  2  4  1  0
  1  5  1  0
  1  6  1  0
  1  7  1  0
  5  8  1  0
  5  9  1  0
  5 10  1  0
  8 11  2  0
  8 12  1  0
 11 13  1  0
 14 11  1  0
 12 15  2  0
 12 16  1  0
 13 17  1  0
 13 18  1  0
 13 19  1  0
 15 14  1  0
 15 20  1  0
  4 21  2  0
 22  4  1  0
 21 23  1  0
 21 24  1  0
 25 22  2  0
 26 22  1  0
 23 27  2  0
 25 27  1  0
 26 28  1  0
 26 29  1  0
 26 30  1  0
 27 31  1  0
 31 32  1  0
 33 31  1  0
 32 34  1  0
 32 35  1  0
 32 36  1  0
 37 33  1  0
 33 38  1  0
 33 39  1  0
 34 40  1  0
 34 41  1  0
 34 42  1  0
 37 40  1  0
 37 43  1  0
 37 44  1  0
 40 45  1  0
 40 46  1  0
 45 47  1  0
 45 48  1  0
 45 49  1  0
M  CHG  2   1   1  40   1
M  END
$$$$

     RDKit          3D

 36 38  0  0  0  0  0  0  0  0999 V2000
   19.5710   15.8590    3.2210 N   0  0  0  0  0  4  0  0  0  0  0  0
   19.0480   15.0890    4.0010 C   0  0  0  0  0  0  0  0  0  0  0  0
   19.6550   14.7440    5.0650 O   0  0  0  0  0  0  0  0  0  0  0  0
   17.5040   14.6990    3.8900 C   0  0  0  0  0  0  0  0  0  0  0  0
   19.4560   17.0020    4.1510 C   0  0  0  0  0  0  0  0  0  0  0  0
   18.7304   15.8133    2.6276 H   0  0  0  0  0  0  0  0  0  0  0  0
   20.4039   15.9817    2.6276 H   0  0  0  0  0  0  0  0  0  0  0  0
   20.6820   17.1190    4.9700 C   0  0  0  0  0  0  0  0  0  0  0  0
   18.5907   16.8469    4.8122 H   0  0  0  0  0  0  0  0  0  0  0  0
   19.3231   17.9262    3.5694 H   0  0  0  0  0  0  0  0  0  0  0  0
   21.0970   16.2820    5.9940 C   0  0  0  0  0  0  0  0  0  0  0  0
   21.6880   18.1260    4.8700 C   0  0  0  0  0  0  0  0  0  0  0  0
   20.5590   15.0460    6.6040 C   0  0  0  0  0  0  0  0  0  0  0  0
   22.2690   16.7280    6.5180 O   0  0  0  0  0  0  0  0  0  0  0  0
   22.6270   17.8390    5.8330 C   0  0  0  0  0  0  0  0  0  0  0  0
   21.7085   18.9671    4.1614 H   0  0  0  0  0  0  0  0  0  0  0  0
   20.5963   15.1317    7.7000 H   0  0  0  0  0  0  0  0  0  0  0  0
   19.5168   14.9021    6.2827 H   0  0  0  0  0  0  0  0  0  0  0  0
   21.1639   14.1852    6.2827 H   0  0  0  0  0  0  0  0  0  0  0  0
   23.5375   18.4274    6.0195 H   0  0  0  0  0  0  0  0  0  0  0  0
   16.9800   13.5960    3.2040 N   0  0  0  0  0  0  0  0  0  0  0  0
   16.4760   15.4150    4.4660 C   0  0  0  0  0  0  0  0  0  0  0  0
   15.6780   13.6650    3.3750 C   0  0  0  0  0  0  0  0  0  0  0  0
   15.3210   14.7640    4.1430 N   0  0  0  0  0  0  0  0  0  0  0  0
   16.5580   16.5310    5.2040 F   0  0  0  0  0  0  0  0  0  0  0  0
   14.6250   12.8240    2.9160 C   0  0  0  0  0  0  0  0  0  0  0  0
   14.0040   15.0740    4.4770 C   0  0  0  0  0  0  0  0  0  0  0  0
   13.3400   13.1070    3.2290 C   0  0  0  0  0  0  0  0  0  0  0  0
   14.8575   11.9400    2.3040 H   0  0  0  0  0  0  0  0  0  0  0  0
   13.0120   14.2790    4.0430 C   0  0  0  0  0  0  0  0  0  0  0  0
   13.7793   15.9598    5.0892 H   0  0  0  0  0  0  0  0  0  0  0  0
   12.1930   12.2570    2.7710 C   0  0  0  0  0  0  0  0  0  0  0  0
   11.9658   14.5058    4.2961 H   0  0  0  0  0  0  0  0  0  0  0  0
   11.6580   11.8605    3.6465 H   0  0  0  0  0  0  0  0  0  0  0  0
   11.5050   12.8650    2.1652 H   0  0  0  0  0  0  0  0  0  0  0  0
   12.5745   11.4218    2.1652 H   0  0  0  0  0  0  0  0  0  0  0  0
  1  2  1  0
  2  3  2  0
  2  4  1  0
  1  5  1  0
  1  6  1  0
  1  7  1  0
  5  8  1  0
  5  9  1  0
  5 10  1  0
  8 11  2  0
  8 12  1  0
 11 13  1  0
 14 11  1  0
 12 15  2  0
 12 16  1  0
 13 17  1  0
 13 18  1  0
 13 19  1  0
 15 14  1  0
 15 20  1  0
  4 21  1  0
 22  4  2  0
 21 23  2  0
 22 24  1  0
 25 22  1  0
 23 24  1  0
 26 23  1  0
 24 27  1  0
 26 28  2  0
 26 29  1  0
 27 30  2  0
 27 31  1  0
 28 32  1  0
 30 28  1  0
 30 33  1  0
 32 34  1  0
 32 35  1  0
 32 36  1  0
M  CHG  1   1   1
M  END
$$$$

     RDKit          3D

 35 36  0  0  0  0  0  0  0  0999 V2000
   19.5710   15.8590    3.2210 N   0  0  0  0  0  4  0  0  0  0  0  0
   18.7590   15.6320    3.5070 C   0  0  0  0  0  0  0  0  0  0  0  0
   19.6390   14.7110    3.6060 O   0  0  0  0  0  0  0  0  0  0  0  0
   17.3210   15.2760    3.9470 C   0  0  0  0  0  0  0  0  0  0  0  0
   19.4560   17.0020    4.1510 C   0  0  0  0  0  0  0  0  0  0  0  0
   18.7304   15.8133    2.6276 H   0  0  0  0  0  0  0  0  0  0  0  0
   20.4039   15.9817    2.6276 H   0  0  0  0  0  0  0  0  0  0  0  0
   20.6820   17.1190    4.9700 C   0  0  0  0  0  0  0  0  0  0  0  0
   18.5907   16.8469    4.8122 H   0  0  0  0  0  0  0  0  0  0  0  0
   19.3231   17.9262    3.5694 H   0  0  0  0  0  0  0  0  0  0  0  0
   21.0970   16.2820    5.9940 C   0  0  0  0  0  0  0  0  0  0  0  0
   21.6880   18.1260    4.8700 C   0  0  0  0  0  0  0  0  0  0  0  0
   20.5590   15.0460    6.6040 C   0  0  0  0  0  0  0  0  0  0  0  0
   22.2690   16.7280    6.5180 O   0  0  0  0  0  0  0  0  0  0  0  0
   22.6270   17.8390    5.8330 C   0  0  0  0  0  0  0  0  0  0  0  0
   21.7085   18.9671    4.1614 H   0  0  0  0  0  0  0  0  0  0  0  0
   20.5963   15.1317    7.7000 H   0  0  0  0  0  0  0  0  0  0  0  0
   19.5168   14.9021    6.2827 H   0  0  0  0  0  0  0  0  0  0  0  0
   21.1639   14.1852    6.2827 H   0  0  0  0  0  0  0  0  0  0  0  0
   23.5375   18.4274    6.0195 H   0  0  0  0  0  0  0  0  0  0  0  0
   16.6900   16.0770    4.9030 C   0  0  0  0  0  0  0  0  0  0  0  0
   16.6730   14.1910    3.4130 N   0  0  0  0  0  0  0  0  0  0  0  0
   15.3960   15.7770    5.3150 C   0  0  0  0  0  0  0  0  0  0  0  0
   17.2164   16.9438    5.3291 H   0  0  0  0  0  0  0  0  0  0  0  0
   15.4100   13.9040    3.8190 C   0  0  0  0  0  0  0  0  0  0  0  0
   14.7460   14.6770    4.7690 C   0  0  0  0  0  0  0  0  0  0  0  0
   14.8923   16.4041    6.0654 H   0  0  0  0  0  0  0  0  0  0  0  0
   14.6950   12.7020    3.2240 C   0  0  0  0  0  0  0  0  0  0  0  0
   13.7231   14.4205    5.0819 H   0  0  0  0  0  0  0  0  0  0  0  0
   15.2220   12.3490    2.0050 F   0  0  0  0  0  0  0  0  0  0  0  0
   14.8580   11.5780    3.9970 F   0  0  0  0  0  0  0  0  0  0  0  0
   13.2000   12.8980    3.0260 C   0  0  0  0  0  0  0  0  0  0  0  0
   12.7057   12.9628    4.0065 H   0  0  0  0  0  0  0  0  0  0  0  0
   13.0232   13.8270    2.4641 H   0  0  0  0  0  0  0  0  0  0  0  0
   12.7897   12.0460    2.4641 H   0  0  0  0  0  0  0  0  0  0  0  0
  1  2  1  0
  2  3  2  0
  2  4  1  0
  1  5  1  0
  1  6  1  0
  1  7  1  0
  5  8  1  0
  5  9  1  0
  5 10  1  0
  8 11  2  0
  8 12  1  0
 11 13  1  0
 14 11  1  0
 12 15  2  0
 12 16  1  0
 13 17  1  0
 13 18  1  0
 13 19  1  0
 15 14  1  0
 15 20  1  0
 21  4  2  0
 22  4  1  0
 23 21  1  0
 21 24  1  0
 22 25  2  0
 26 23  2  0
 23 27  1  0
 25 26  1  0
 28 25  1  0
 26 29  1  0
 30 28  1  0
 31 28  1  0
 32 28  1  0
 32 33  1  0
 32 34  1  0
 32 35  1  0
M  CHG  1   1   1
M  END
$$$$

     RDKit          3D

 35 36  0  0  0  0  0  0  0  0999 V2000
   19.5710   15.8590    3.2210 N   0  0  0  0  0  4  0  0  0  0  0  0
   18.9830   14.7100    4.0820 C   0  0  0  0  0  0  0  0  0  0  0  0
   19.4740   14.4280    5.2100 O   0  0  0  0  0  0  0  0  0  0  0  0
   17.6040   14.2280    3.8160 C   0  0  0  0  0  0  0  0  0  0  0  0
   19.4560   17.0020    4.1510 C   0  0  0  0  0  0  0  0  0  0  0  0
   18.7304   15.8133    2.6276 H   0  0  0  0  0  0  0  0  0  0  0  0
   20.4039   15.9817    2.6276 H   0  0  0  0  0  0  0  0  0  0  0  0
   20.6820   17.1190    4.9700 C   0  0  0  0  0  0  0  0  0  0  0  0
   18.5907   16.8469    4.8122 H   0  0  0  0  0  0  0  0  0  0  0  0
   19.3231   17.9262    3.5694 H   0  0  0  0  0  0  0  0  0  0  0  0
   21.0970   16.2820    5.9940 C   0  0  0  0  0  0  0  0  0  0  0  0
   21.6880   18.1260    4.8700 C   0  0  0  0  0  0  0  0  0  0  0  0
   20.5590   15.0460    6.6040 C   0  0  0  0  0  0  0  0  0  0  0  0
   22.2690   16.7280    6.5180 O   0  0  0  0  0  0  0  0  0  0  0  0
   22.6270   17.8390    5.8330 C   0  0  0  0  0  0  0  0  0  0  0  0
   21.7085   18.9671    4.1614 H   0  0  0  0  0  0  0  0  0  0  0  0
   20.5963   15.1317    7.7000 H   0  0  0  0  0  0  0  0  0  0  0  0
   19.5168   14.9021    6.2827 H   0  0  0  0  0  0  0  0  0  0  0  0
   21.1639   14.1852    6.2827 H   0  0  0  0  0  0  0  0  0  0  0  0
   23.5375   18.4274    6.0195 H   0  0  0  0  0  0  0  0  0  0  0  0
   17.4060   13.0940    3.0540 C   0  0  0  0  0  0  0  0  0  0  0  0
   16.4560   14.8400    4.2960 C   0  0  0  0  0  0  0  0  0  0  0  0
   16.1990   12.5580    2.7800 N   0  0  0  0  0  0  0  0  0  0  0  0
   18.2942   12.5928    2.6417 H   0  0  0  0  0  0  0  0  0  0  0  0
   15.2150   14.3140    4.0380 N   0  0  0  0  0  0  0  0  0  0  0  0
   16.5000   16.1400    5.0960 C   0  0  0  0  0  0  0  0  0  0  0  0
   15.1450   13.1990    3.2970 C   0  0  0  0  0  0  0  0  0  0  0  0
   17.4350   17.0440    4.6800 F   0  0  0  0  0  0  0  0  0  0  0  0
   16.6320   15.9810    6.4450 F   0  0  0  0  0  0  0  0  0  0  0  0
   15.3160   16.8370    4.9710 F   0  0  0  0  0  0  0  0  0  0  0  0
   13.5120   12.5610    2.9930 S   0  0  0  0  0  0  0  0  0  0  0  0
   12.5190   13.8320    3.8100 C   0  0  0  0  0  0  0  0  0  0  0  0
   12.6061   13.7205    4.9009 H   0  0  0  0  0  0  0  0  0  0  0  0
   12.8811   14.8274    3.5131 H   0  0  0  0  0  0  0  0  0  0  0  0
   11.4656   13.7215    3.5131 H   0  0  0  0  0  0  0  0  0  0  0  0
  1  2  1  0
  2  3  2  0
  2  4  1  0
  1  5  1  0
  1  6  1  0
  1  7  1  0
  5  8  1  0
  5  9  1  0
  5 10  1  0
  8 11  2  0
  8 12  1  0
 11 13  1  0
 14 11  1  0
 12 15  2  0
 12 16  1  0
 13 17  1  0
 13 18  1  0
 13 19  1  0
 15 14  1  0
 15 20  1  0
  4 21  2  0
 22  4  1  0
 21 23  1  0
 21 24  1  0
 25 22  2  0
 26 22  1  0
 23 27  2  0
 25 27  1  0
 28 26  1  0
 29 26  1  0
 30 26  1  0
 31 27  1  0
 31 32  1  0
 32 33  1  0
 32 34  1  0
 32 35  1  0
M  CHG  1   1   1
M  END
$$$$

     RDKit          3D

 47 49  0  0  0  0  0  0  0  0999 V2000
   18.3740   16.4650    4.2090 N   0  0  0  0  0  4  0  0  0  0  0  0
   19.1080   16.2100    3.2310 C   0  0  0  0  0  0  0  0  0  0  0  0
   19.6620   16.4810    2.1300 O   0  0  0  0  0  0  0  0  0  0  0  0
   20.0220   15.6270    4.3120 C   0  0  1  0  0  0  0  0  0  0  0  0
   17.7310   16.6910    5.5380 C   0  0  0  0  0  0  0  0  0  0  0  0
   18.1410   15.0780    3.7050 C   0  0  0  0  0  0  0  0  0  0  0  0
   17.9829   17.1353    3.5318 H   0  0  0  0  0  0  0  0  0  0  0  0
   16.2150   16.5760    5.3960 C   0  0  0  0  0  0  0  0  0  0  0  0
   17.9898   17.6953    5.9045 H   0  0  0  0  0  0  0  0  0  0  0  0
   18.0907   15.9360    6.2525 H   0  0  0  0  0  0  0  0  0  0  0  0
   16.6990   14.6660    3.7900 C   0  0  0  0  0  0  0  0  0  0  0  0
   18.7427   14.3796    4.3051 H   0  0  0  0  0  0  0  0  0  0  0  0
   18.4312   15.0564    2.6442 H   0  0  0  0  0  0  0  0  0  0  0  0
   15.7920   15.3520    4.6200 C   0  0  0  0  0  0  0  0  0  0  0  0
   15.8420   17.4695    4.8740 H   0  0  0  0  0  0  0  0  0  0  0  0
   15.7929   16.4891    6.4081 H   0  0  0  0  0  0  0  0  0  0  0  0
   16.2590   13.5470    3.0730 C   0  0  0  0  0  0  0  0  0  0  0  0
   14.4550   14.9290    4.6860 C   0  0  0  0  0  0  0  0  0  0  0  0
   14.9300   13.1290    3.1560 C   0  0  0  0  0  0  0  0  0  0  0  0
   16.9666   12.9926    2.4390 H   0  0  0  0  0  0  0  0  0  0  0  0
   14.0110   13.8150    3.9600 C   0  0  0  0  0  0  0  0  0  0  0  0
   13.7438   15.4810    5.3180 H   0  0  0  0  0  0  0  0  0  0  0  0
   14.6002   12.2499    2.5829 H   0  0  0  0  0  0  0  0  0  0  0  0
   12.5570   13.3780    4.0590 C   0  0  0  0  0  0  0  0  0  0  0  0
   11.6370   14.5560    4.3920 C   0  0  0  0  0  0  0  0  0  0  0  0
   12.0960   12.6680    2.7850 C   0  0  0  0  0  0  0  0  0  0  0  0
   12.4919   12.6571    4.8873 H   0  0  0  0  0  0  0  0  0  0  0  0
   11.5555   14.6603    5.4840 H   0  0  0  0  0  0  0  0  0  0  0  0
   12.0552   15.4798    3.9656 H   0  0  0  0  0  0  0  0  0  0  0  0
   10.6395   14.3741    3.9656 H   0  0  0  0  0  0  0  0  0  0  0  0
   11.5151   11.7733    3.0536 H   0  0  0  0  0  0  0  0  0  0  0  0
   11.4674   13.3491    2.1926 H   0  0  0  0  0  0  0  0  0  0  0  0
   12.9740   12.3709    2.1926 H   0  0  0  0  0  0  0  0  0  0  0  0
   20.2990   16.6800    5.3810 C   0  0  1  0  0  0  0  0  0  0  0  0
   19.2370   14.4230    4.8400 C   0  0  0  0  0  0  0  0  0  0  0  0
   21.0148   15.3226    3.9491 H   0  0  0  0  0  0  0  0  0  0  0  0
   21.3330   16.1940    6.3840 C   0  0  0  0  0  0  0  0  0  0  0  0
   21.1190   18.1740    4.6580 S   0  0  0  0  0  0  0  0  0  0  0  0
   19.3176   16.8913    5.8307 H   0  0  0  0  0  0  0  0  0  0  0  0
   19.2443   14.4343    5.9399 H   0  0  0  0  0  0  0  0  0  0  0  0
   18.1990   14.4754    4.4797 H   0  0  0  0  0  0  0  0  0  0  0  0
   19.7037   13.4944    4.4797 H   0  0  0  0  0  0  0  0  0  0  0  0
   22.5780   16.6690    6.1100 N   0  0  0  0  0  0  0  0  0  0  0  0
   21.1140   15.4720    7.3510 O   0  0  0  0  0  0  0  0  0  0  0  0
   22.6470   17.8210    5.4080 C   0  0  0  0  0  0  0  0  0  0  0  0
   23.4260   16.1747    6.4223 H   0  0  0  0  0  0  0  0  0  0  0  0
   23.6190   18.5580    5.3680 O   0  0  0  0  0  0  0  0  0  0  0  0
  1  2  1  0
  2  3  2  0
  2  4  1  0
  1  5  1  0
  6  1  1  0
  1  7  1  0
  5  8  1  0
  5  9  1  0
  5 10  1  0
  6 11  1  0
  6 12  1  0
  6 13  1  0
  8 14  1  0
  8 15  1  0
  8 16  1  0
 11 17  1  0
 14 11  2  0
 18 14  1  0
 17 19  2  0
 17 20  1  0
 18 21  2  0
 18 22  1  0
 19 21  1  0
 19 23  1  0
 24 21  1  0
 24 25  1  0
 26 24  1  0
 24 27  1  0
 25 28  1  0
 25 29  1  0
 25 30  1  0
 26 31  1  0
 26 32  1  0
 26 33  1  0
  4 34  1  0
 35  4  1  0
  4 36  1  6
 34 37  1  0
 38 34  1  0
 34 39  1  1
 35 40  1  0
 35 41  1  0
 35 42  1  0
 37 43  1  0
 44 37  2  0
 38 45  1  0
 43 45  1  0
 43 46  1  0
 45 47  2  0
M  CHG  1   1   1
M  END
$$$$

     RDKit          3D

 30 31  0  0  0  0  0  0  0  0999 V2000
   17.3120   15.5070    3.5290 N   0  0  0  0  0  4  0  0  0  0  0  0
   18.0360   14.9870    3.7100 C   0  0  0  0  0  0  0  0  0  0  0  0
   19.1590   14.5070    3.3600 O   0  0  0  0  0  0  0  0  0  0  0  0
   16.8270   14.1260    3.4860 C   0  0  0  0  0  0  0  0  0  0  0  0
   17.4850   15.2740    5.0360 C   0  0  1  0  0  0  0  0  0  0  0  0
   16.7048   16.3247    3.3755 H   0  0  0  0  0  0  0  0  0  0  0  0
   18.2327   15.6777    3.1000 H   0  0  0  0  0  0  0  0  0  0  0  0
   18.9480   15.3100    5.3540 C   0  0  0  0  0  0  0  0  0  0  0  0
   16.7020   16.3310    5.8300 C   0  0  0  0  0  0  0  0  0  0  0  0
   17.0818   14.2918    5.3235 H   0  0  0  0  0  0  0  0  0  0  0  0
   19.4250   14.8490    6.4950 N   0  0  0  0  0  0  0  0  0  0  0  0
   20.0930   16.0290    4.3000 S   0  0  0  0  0  0  0  0  0  0  0  0
   17.4450   17.4000    6.1600 F   0  0  0  0  0  0  0  0  0  0  0  0
   16.2600   15.7570    6.9790 F   0  0  0  0  0  0  0  0  0  0  0  0
   15.6080   16.7400    5.1540 F   0  0  0  0  0  0  0  0  0  0  0  0
   20.7980   15.0290    6.5220 C   0  0  0  0  0  0  0  0  0  0  0  0
   21.3370   15.6520    5.4160 C   0  0  0  0  0  0  0  0  0  0  0  0
   21.4169   14.6973    7.3687 H   0  0  0  0  0  0  0  0  0  0  0  0
   22.4048   15.8735    5.2721 H   0  0  0  0  0  0  0  0  0  0  0  0
   16.9410   12.8870    2.8630 C   0  0  0  0  0  0  0  0  0  0  0  0
   15.5450   14.5280    3.8860 C   0  0  0  0  0  0  0  0  0  0  0  0
   15.8980   12.0470    2.6220 N   0  0  0  0  0  0  0  0  0  0  0  0
   17.9429   12.5645    2.5434 H   0  0  0  0  0  0  0  0  0  0  0  0
   14.4520   13.6970    3.6560 C   0  0  0  0  0  0  0  0  0  0  0  0
   15.4027   15.4997    4.3814 H   0  0  0  0  0  0  0  0  0  0  0  0
   14.6810   12.4800    3.0270 C   0  0  0  0  0  0  0  0  0  0  0  0
   13.1350   14.0840    4.0560 C   0  0  0  0  0  0  0  0  0  0  0  0
   13.8163   11.8247    2.8460 H   0  0  0  0  0  0  0  0  0  0  0  0
   12.0300   14.4110    4.3960 C   0  0  0  0  0  0  0  0  0  0  0  0
   11.0183   14.7104    4.7073 H   0  0  0  0  0  0  0  0  0  0  0  0
  1  2  1  0
  2  3  2  0
  2  4  1  0
  1  5  1  0
  1  6  1  0
  1  7  1  0
  8  5  1  0
  9  5  1  0
  5 10  1  1
 11  8  2  0
 12  8  1  0
 13  9  1  0
 14  9  1  0
 15  9  1  0
 16 11  1  0
 12 17  1  0
 17 16  2  0
 16 18  1  0
 17 19  1  0
  4 20  2  0
 21  4  1  0
 20 22  1  0
 20 23  1  0
 21 24  2  0
 21 25  1  0
 22 26  2  0
 26 24  1  0
 27 24  1  0
 26 28  1  0
 27 29  3  0
 29 30  1  0
M  CHG  1   1   1
M  END
$$$$

     RDKit          3D

 35 35  0  0  0  0  0  0  0  0999 V2000
   18.1430   14.3870    3.8300 N   0  0  0  0  0  4  0  0  0  0  0  0
   18.7120   15.5750    3.8970 C   0  0  0  0  0  0  0  0  0  0  0  0
   19.8810   15.1480    3.6920 O   0  0  0  0  0  0  0  0  0  0  0  0
   18.5910   16.9200    4.6210 C   0  0  0  0  0  0  0  0  0  0  0  0
   16.9560   15.2680    3.8460 C   0  0  1  0  0  0  0  0  0  0  0  0
   18.4271   14.1761    4.7973 H   0  0  0  0  0  0  0  0  0  0  0  0
   17.9132   13.5102    3.3408 H   0  0  0  0  0  0  0  0  0  0  0  0
   15.6990   14.4590    3.6370 C   0  0  0  0  0  0  0  0  0  0  0  0
   16.9980   16.0100    5.1110 C   0  0  0  0  0  0  0  0  0  0  0  0
   16.9574   15.9939    3.0195 H   0  0  0  0  0  0  0  0  0  0  0  0
   15.7500   13.2650    2.9020 C   0  0  0  0  0  0  0  0  0  0  0  0
   14.4690   14.8330    4.2020 C   0  0  0  0  0  0  0  0  0  0  0  0
   17.0330   16.6250    6.1430 C   0  0  0  0  0  0  0  0  0  0  0  0
   14.5940   12.5120    2.7660 C   0  0  0  0  0  0  0  0  0  0  0  0
   16.6917   12.9319    2.4413 H   0  0  0  0  0  0  0  0  0  0  0  0
   13.3680   14.0130    4.0090 C   0  0  0  0  0  0  0  0  0  0  0  0
   14.3807   15.7601    4.7873 H   0  0  0  0  0  0  0  0  0  0  0  0
   17.0650   17.1879    7.0875 H   0  0  0  0  0  0  0  0  0  0  0  0
   13.4160   12.8610    3.3150 N   0  0  0  0  0  0  0  0  0  0  0  0
   14.6421   11.5824    2.1798 H   0  0  0  0  0  0  0  0  0  0  0  0
   12.4060   14.3197    4.4454 H   0  0  0  0  0  0  0  0  0  0  0  0
   19.6390   17.9550    4.2260 C   0  0  0  0  0  0  0  0  0  0  0  0
   18.6817   16.7363    5.7018 H   0  0  0  0  0  0  0  0  0  0  0  0
   17.6163   17.3405    4.3327 H   0  0  0  0  0  0  0  0  0  0  0  0
   20.5700   18.2870    5.3920 C   0  0  0  0  0  0  0  0  0  0  0  0
   19.1287   18.8746    3.9038 H   0  0  0  0  0  0  0  0  0  0  0  0
   20.2459   17.5357    3.4100 H   0  0  0  0  0  0  0  0  0  0  0  0
   21.9520   17.6770    5.1780 C   0  0  0  0  0  0  0  0  0  0  0  0
   20.1397   17.8860    6.3215 H   0  0  0  0  0  0  0  0  0  0  0  0
   20.6752   19.3800    5.4566 H   0  0  0  0  0  0  0  0  0  0  0  0
   22.3740   16.9600    6.3900 N   0  0  0  0  0  0  0  0  0  0  0  0
   21.9138   16.9741    4.3327 H   0  0  0  0  0  0  0  0  0  0  0  0
   22.6730   18.4790    4.9614 H   0  0  0  0  0  0  0  0  0  0  0  0
   21.6120   16.0560    6.7760 N   0  0  0  0  0  4  0  0  0  0  0  0
   20.9250   15.2200    7.1350 N   0  0  0  0  0  2  0  0  0  0  0  0
  1  2  1  0
  2  3  2  0
  2  4  1  0
  1  5  1  0
  1  6  1  0
  1  7  1  0
  8  5  1  0
  9  5  1  0
  5 10  1  6
 11  8  2  0
 12  8  1  0
 13  9  3  0
 14 11  1  0
 11 15  1  0
 12 16  2  0
 12 17  1  0
 13 18  1  0
 19 14  2  0
 14 20  1  0
 16 19  1  0
 16 21  1  0
  4 22  1  0
  4 23  1  0
  4 24  1  0
 22 25  1  0
 22 26  1  0
 22 27  1  0
 28 25  1  0
 25 29  1  0
 25 30  1  0
 31 28  1  0
 28 32  1  0
 28 33  1  0
 31 34  2  0
 34 35  2  0
M  CHG  3   1   1  34   1  35  -1
M  END
$$$$

     RDKit          3D

 34 36  0  0  0  0  0  0  0  0999 V2000
   19.8580   17.4320    3.0870 N   0  0  0  0  0  0  0  0  0  0  0  0
   19.0190   16.3280    3.9320 C   0  0  0  0  0  0  0  0  0  0  0  0
   19.9040   15.4950    3.5410 O   0  0  0  0  0  0  0  0  0  0  0  0
   17.6260   15.7770    4.1940 C   0  0  0  0  0  0  0  0  0  0  0  0
   20.6950   17.2760    4.1540 C   0  0  0  0  0  0  0  0  0  0  0  0
   20.0621   18.1450    2.3723 H   0  0  0  0  0  0  0  0  0  0  0  0
   21.7390   18.0420    4.2380 N   0  0  0  0  0  0  0  0  0  0  0  0
   20.4910   16.3340    5.1830 C   0  0  0  0  0  0  0  0  0  0  0  0
   22.5910   17.9250    5.3070 C   0  0  0  0  0  0  0  0  0  0  0  0
   21.4000   16.3000    6.1850 N   0  0  0  0  0  0  0  0  0  0  0  0
   19.5900   15.3530    5.4940 C   0  0  0  0  0  0  0  0  0  0  0  0
   23.6540   18.7680    5.3100 N   0  0  0  0  0  0  0  0  0  0  0  0
   22.4760   17.0810    6.2850 N   0  0  0  0  0  0  0  0  0  0  0  0
   21.0830   15.3570    7.0870 N   0  0  0  0  0  0  0  0  0  0  0  0
   19.9650   14.7650    6.6710 N   0  0  0  0  0  0  0  0  0  0  0  0
   18.7080   15.0812    4.8955 H   0  0  0  0  0  0  0  0  0  0  0  0
   24.3349   18.7355    6.0822 H   0  0  0  0  0  0  0  0  0  0  0  0
   23.7802   19.4405    4.5401 H   0  0  0  0  0  0  0  0  0  0  0  0
   16.7910   16.4100    5.1320 C   0  0  0  0  0  0  0  0  0  0  0  0
   17.1240   14.6400    3.5190 C   0  0  0  0  0  0  0  0  0  0  0  0
   15.5120   15.9240    5.4020 C   0  0  0  0  0  0  0  0  0  0  0  0
   17.1528   17.3036    5.6617 H   0  0  0  0  0  0  0  0  0  0  0  0
   15.8300   14.1440    3.7770 C   0  0  0  0  0  0  0  0  0  0  0  0
   17.7570   14.1318    2.7767 H   0  0  0  0  0  0  0  0  0  0  0  0
   15.0420   14.7830    4.7500 C   0  0  0  0  0  0  0  0  0  0  0  0
   14.8715   16.4417    6.1312 H   0  0  0  0  0  0  0  0  0  0  0  0
   15.1970   12.7020    2.8490 S   0  0  0  0  0  4  0  0  0  0  0  0
   13.7710   14.3920    5.1030 O   0  0  0  0  0  0  0  0  0  0  0  0
   16.2960   12.1320    1.9840 O   0  0  0  0  0  0  0  0  0  0  0  0
   14.5850   11.7350    3.8380 O   0  0  0  0  0  1  0  0  0  0  0  0
   12.7940   15.0010    4.2570 C   0  0  0  0  0  0  0  0  0  0  0  0
   12.0221   15.4822    4.8756 H   0  0  0  0  0  0  0  0  0  0  0  0
   13.2789   15.7571    3.6220 H   0  0  0  0  0  0  0  0  0  0  0  0
   12.3287   14.2327    3.6220 H   0  0  0  0  0  0  0  0  0  0  0  0
  1  2  1  0
  2  3  2  0
  2  4  1  0
  1  5  1  0
  1  6  1  0
  5  7  2  0
  8  5  1  0
  7  9  1  0
 10  8  1  0
 11  8  2  0
  9 12  1  0
 13  9  2  0
 13 10  1  0
 14 10  1  0
 11 15  1  0
 11 16  1  0
 12 17  1  0
 12 18  1  0
 15 14  2  0
  4 19  2  0
 20  4  1  0
 19 21  1  0
 19 22  1  0
 23 20  2  0
 20 24  1  0
 21 25  2  0
 21 26  1  0
 23 25  1  0
 27 23  1  0
 28 25  1  0
 29 27  2  0
 27 30  1  1
 28 31  1  0
 31 32  1  0
 31 33  1  0
 31 34  1  0
M  CHG  1  30  -1
M  END
$$$$

     RDKit          3D

 42 45  0  0  0  0  0  0  0  0999 V2000
   19.8580   17.4320    3.0870 N   0  0  0  0  0  0  0  0  0  0  0  0
   19.5760   15.9820    3.6740 C   0  0  0  0  0  0  0  0  0  0  0  0
   20.1760   14.8970    3.9170 O   0  0  0  0  0  0  0  0  0  0  0  0
   18.1090   15.8250    3.3030 C   0  0  0  0  0  0  0  0  0  0  0  0
   20.6950   17.2760    4.1540 C   0  0  0  0  0  0  0  0  0  0  0  0
   20.0621   18.1450    2.3723 H   0  0  0  0  0  0  0  0  0  0  0  0
   21.7390   18.0420    4.2380 N   0  0  0  0  0  0  0  0  0  0  0  0
   20.4910   16.3340    5.1830 C   0  0  0  0  0  0  0  0  0  0  0  0
   22.5910   17.9250    5.3070 C   0  0  0  0  0  0  0  0  0  0  0  0
   21.4000   16.3000    6.1850 N   0  0  0  0  0  0  0  0  0  0  0  0
   19.5900   15.3530    5.4940 C   0  0  0  0  0  0  0  0  0  0  0  0
   23.6540   18.7680    5.3100 N   0  0  0  0  0  0  0  0  0  0  0  0
   22.4760   17.0810    6.2850 N   0  0  0  0  0  0  0  0  0  0  0  0
   21.0830   15.3570    7.0870 N   0  0  0  0  0  0  0  0  0  0  0  0
   19.9650   14.7650    6.6710 N   0  0  0  0  0  0  0  0  0  0  0  0
   18.7080   15.0812    4.8955 H   0  0  0  0  0  0  0  0  0  0  0  0
   24.3349   18.7355    6.0822 H   0  0  0  0  0  0  0  0  0  0  0  0
   23.7802   19.4405    4.5401 H   0  0  0  0  0  0  0  0  0  0  0  0
   17.2730   15.1930    4.4110 C   0  0  1  0  0  0  0  0  0  0  0  0
   18.0409   15.1893    2.4079 H   0  0  0  0  0  0  0  0  0  0  0  0
   17.7072   16.8335    3.1253 H   0  0  0  0  0  0  0  0  0  0  0  0
   16.5230   16.3070    5.1810 C   0  0  0  0  0  0  0  0  0  0  0  0
   16.1160   14.3420    3.9130 C   0  0  0  0  0  0  0  0  0  0  0  0
   17.9960   14.5978    4.9881 H   0  0  0  0  0  0  0  0  0  0  0  0
   16.9950   17.2430    5.8090 O   0  0  0  0  0  0  0  0  0  0  0  0
   15.1610   16.0750    5.0440 N   0  0  0  0  0  0  0  0  0  0  0  0
   14.9130   14.9310    4.3090 C   0  0  0  0  0  0  0  0  0  0  0  0
   16.1000   13.1420    3.2110 C   0  0  0  0  0  0  0  0  0  0  0  0
   14.4274   16.6796    5.4404 H   0  0  0  0  0  0  0  0  0  0  0  0
   13.6740   14.4050    4.0050 C   0  0  0  0  0  0  0  0  0  0  0  0
   17.3540   12.4420    2.7860 C   0  0  0  0  0  0  0  0  0  0  0  0
   14.8420   12.6010    2.8760 C   0  0  0  0  0  0  0  0  0  0  0  0
   13.6340   13.2260    3.2550 C   0  0  0  0  0  0  0  0  0  0  0  0
   12.7493   14.8967    4.3414 H   0  0  0  0  0  0  0  0  0  0  0  0
   17.9180   12.1272    3.6764 H   0  0  0  0  0  0  0  0  0  0  0  0
   17.0948   11.5581    2.1847 H   0  0  0  0  0  0  0  0  0  0  0  0
   17.9703   13.1266    2.1847 H   0  0  0  0  0  0  0  0  0  0  0  0
   14.8003   11.6636    2.3020 H   0  0  0  0  0  0  0  0  0  0  0  0
   12.3210   12.5910    2.9070 C   0  0  0  0  0  0  0  0  0  0  0  0
   11.7832   12.3309    3.8307 H   0  0  0  0  0  0  0  0  0  0  0  0
   11.7172   13.2967    2.3175 H   0  0  0  0  0  0  0  0  0  0  0  0
   12.4993   11.6796    2.3175 H   0  0  0  0  0  0  0  0  0  0  0  0
  1  2  1  0
  2  3  2  0
  2  4  1  0
  1  5  1  0
  1  6  1  0
  5  7  2  0
  8  5  1  0
  7  9  1  0
 10  8  1  0
 11  8  2  0
  9 12  1  0
 13  9  2  0
 13 10  1  0
 14 10  1  0
 11 15  1  0
 11 16  1  0
 12 17  1  0
 12 18  1  0
 15 14  2  0
  4 19  1  0
  4 20  1  0
  4 21  1  0
 22 19  1  0
 23 19  1  0
 19 24  1  1
 25 22  2  0
 26 22  1  0
 23 27  2  0
 28 23  1  0
 27 26  1  0
 26 29  1  0
 30 27  1  0
 31 28  1  0
 32 28  2  0
 30 33  2  0
 30 34  1  0
 31 35  1  0
 31 36  1  0
 31 37  1  0
 33 32  1  0
 32 38  1  0
 39 33  1  0
 39 40  1  0
 39 41  1  0
 39 42  1  0
M  END
$$$$

     RDKit          3D

 48 50  0  0  0  0  0  0  0  0999 V2000
   19.2640   14.3780    3.3770 N   0  0  0  0  0  4  0  0  0  0  0  0
   18.1280   14.7760    3.7560 C   0  0  0  0  0  0  0  0  0  0  0  0
   18.3820   15.7880    3.0390 O   0  0  0  0  0  0  0  0  0  0  0  0
   16.6720   14.3770    3.8170 C   0  0  0  0  0  0  0  0  0  0  0  0
   19.6750   15.3900    4.3870 C   0  0  2  0  0  0  0  0  0  0  0  0
   18.9211   13.5336    3.8569 H   0  0  0  0  0  0  0  0  0  0  0  0
   20.0724   14.1334    2.7874 H   0  0  0  0  0  0  0  0  0  0  0  0
   19.3890   14.8170    5.7700 C   0  0  0  0  0  0  0  0  0  0  0  0
   18.9570   16.6900    4.1710 C   0  0  2  0  0  0  0  0  0  0  0  0
   20.7492   15.6065    4.2906 H   0  0  0  0  0  0  0  0  0  0  0  0
   19.7405   15.5212    6.5385 H   0  0  0  0  0  0  0  0  0  0  0  0
   18.3064   14.6592    5.8848 H   0  0  0  0  0  0  0  0  0  0  0  0
   19.9137   13.8570    5.8848 H   0  0  0  0  0  0  0  0  0  0  0  0
   19.3060   17.5640    2.9930 C   0  0  0  0  0  0  0  0  0  0  0  0
   19.6180   18.0330    4.3920 C   0  0  2  0  0  0  0  0  0  0  0  0
   18.0461   16.2126    4.5613 H   0  0  0  0  0  0  0  0  0  0  0  0
   20.1228   17.2732    2.3161 H   0  0  0  0  0  0  0  0  0  0  0  0
   18.7469   17.9791    2.1415 H   0  0  0  0  0  0  0  0  0  0  0  0
   21.1010   18.1190    4.8430 C   0  0  0  0  0  0  0  0  0  0  0  0
   19.3767   18.9184    4.9986 H   0  0  0  0  0  0  0  0  0  0  0  0
   22.1220   18.6900    4.1170 C   0  0  0  0  0  0  0  0  0  0  0  0
   21.5760   17.6400    6.0270 O   0  0  0  0  0  0  0  0  0  0  0  0
   23.2940   18.5420    4.8990 C   0  0  0  0  0  0  0  0  0  0  0  0
   22.0435   19.1656    3.1283 H   0  0  0  0  0  0  0  0  0  0  0  0
   22.9100   17.8920    6.0480 C   0  0  0  0  0  0  0  0  0  0  0  0
   24.3081   18.8795    4.6390 H   0  0  0  0  0  0  0  0  0  0  0  0
   23.5880   17.6151    6.8687 H   0  0  0  0  0  0  0  0  0  0  0  0
   15.7670   15.0680    4.5330 C   0  0  0  0  0  0  0  0  0  0  0  0
   16.2240   13.2000    3.0730 C   0  0  0  0  0  0  0  0  0  0  0  0
   14.4290   14.7270    4.6080 N   0  0  0  0  0  0  0  0  0  0  0  0
   16.1210   16.2950    5.3350 C   0  0  0  0  0  0  0  0  0  0  0  0
   16.9340   12.4780    2.3810 O   0  0  0  0  0  0  0  0  0  0  0  0
   14.8900   12.9240    3.1940 N   0  0  0  0  0  0  0  0  0  0  0  0
   14.0460   13.6850    3.9460 C   0  0  0  0  0  0  0  0  0  0  0  0
   16.0542   16.0634    6.4083 H   0  0  0  0  0  0  0  0  0  0  0  0
   17.1465   16.6093    5.0909 H   0  0  0  0  0  0  0  0  0  0  0  0
   15.4206   17.1073    5.0909 H   0  0  0  0  0  0  0  0  0  0  0  0
   14.5075   12.1074    2.6963 H   0  0  0  0  0  0  0  0  0  0  0  0
   12.5860   13.2610    3.9890 C   0  0  0  0  0  0  0  0  0  0  0  0
   11.6850   14.4400    4.3450 C   0  0  0  0  0  0  0  0  0  0  0  0
   12.1660   12.6190    2.6690 C   0  0  0  0  0  0  0  0  0  0  0  0
   12.4728   12.5047    4.7797 H   0  0  0  0  0  0  0  0  0  0  0  0
   11.6154   14.5311    5.4390 H   0  0  0  0  0  0  0  0  0  0  0  0
   12.1087   15.3648    3.9263 H   0  0  0  0  0  0  0  0  0  0  0  0
   10.6814   14.2741    3.9263 H   0  0  0  0  0  0  0  0  0  0  0  0
   11.5743   11.7145    2.8731 H   0  0  0  0  0  0  0  0  0  0  0  0
   11.5590   13.3317    2.0914 H   0  0  0  0  0  0  0  0  0  0  0  0
   13.0622   12.3483    2.0914 H   0  0  0  0  0  0  0  0  0  0  0  0
  1  2  1  0
  2  3  2  0
  2  4  1  0
  1  5  1  0
  1  6  1  0
  1  7  1  0
  5  8  1  0
  5  9  1  0
  5 10  1  1
  8 11  1  0
  8 12  1  0
  8 13  1  0
 14  9  1  0
 15  9  1  0
  9 16  1  1
 15 14  1  0
 14 17  1  0
 14 18  1  0
 19 15  1  0
 15 20  1  1
 21 19  2  0
 22 19  1  0
 23 21  1  0
 21 24  1  0
 22 25  1  0
 25 23  2  0
 23 26  1  0
 25 27  1  0
  4 28  2  0
 29  4  1  0
 28 30  1  0
 31 28  1  0
 32 29  2  0
 33 29  1  0
 30 34  2  0
 31 35  1  0
 31 36  1  0
 31 37  1  0
 33 34  1  0
 33 38  1  0
 39 34  1  0
 39 40  1  0
 41 39  1  0
 39 42  1  0
 40 43  1  0
 40 44  1  0
 40 45  1  0
 41 46  1  0
 41 47  1  0
 41 48  1  0
M  CHG  1   1   1
M  END
$$$$

     RDKit          3D

 33 33  0  0  0  0  0  0  0  0999 V2000
   17.9360   15.7980    3.7580 N   0  0  0  0  0  4  0  0  0  0  0  0
   18.0360   14.9870    3.7100 C   0  0  0  0  0  0  0  0  0  0  0  0
   19.1590   14.5070    3.3600 O   0  0  0  0  0  0  0  0  0  0  0  0
   16.8270   14.1260    3.4860 C   0  0  0  0  0  0  0  0  0  0  0  0
   17.9870   15.5660    5.2890 C   0  0  2  0  0  0  0  0  0  0  0  0
   19.0870   16.5260    3.1640 C   0  0  0  0  0  0  0  0  0  0  0  0
   17.1171   16.4021    3.5988 H   0  0  0  0  0  0  0  0  0  0  0  0
   16.8680   16.3840    5.9740 C   0  0  0  0  0  0  0  0  0  0  0  0
   19.3960   15.9190    5.7850 C   0  0  0  0  0  0  0  0  0  0  0  0
   17.8001   14.5130    5.5462 H   0  0  0  0  0  0  0  0  0  0  0  0
   19.7214   16.9273    3.9680 H   0  0  0  0  0  0  0  0  0  0  0  0
   19.6759   15.8358    2.5421 H   0  0  0  0  0  0  0  0  0  0  0  0
   18.7157   17.3539    2.5421 H   0  0  0  0  0  0  0  0  0  0  0  0
   17.3910   17.5740    6.3630 F   0  0  0  0  0  0  0  0  0  0  0  0
   15.8250   16.6230    5.1680 F   0  0  0  0  0  0  0  0  0  0  0  0
   16.4420   15.7520    7.0890 F   0  0  0  0  0  0  0  0  0  0  0  0
   20.0770   14.7880    6.5410 C   0  0  0  0  0  0  0  0  0  0  0  0
   20.0163   16.1782    4.9144 H   0  0  0  0  0  0  0  0  0  0  0  0
   19.2895   16.7584    6.4879 H   0  0  0  0  0  0  0  0  0  0  0  0
   19.9753   14.9569    7.6232 H   0  0  0  0  0  0  0  0  0  0  0  0
   19.6046   13.8314    6.2732 H   0  0  0  0  0  0  0  0  0  0  0  0
   21.1435   14.7579    6.2732 H   0  0  0  0  0  0  0  0  0  0  0  0
   16.9410   12.8870    2.8630 C   0  0  0  0  0  0  0  0  0  0  0  0
   15.5450   14.5280    3.8860 C   0  0  0  0  0  0  0  0  0  0  0  0
   15.8980   12.0470    2.6220 N   0  0  0  0  0  0  0  0  0  0  0  0
   17.9429   12.5645    2.5434 H   0  0  0  0  0  0  0  0  0  0  0  0
   14.4520   13.6970    3.6560 C   0  0  0  0  0  0  0  0  0  0  0  0
   15.4027   15.4997    4.3814 H   0  0  0  0  0  0  0  0  0  0  0  0
   14.6810   12.4800    3.0270 C   0  0  0  0  0  0  0  0  0  0  0  0
   13.1350   14.0840    4.0560 C   0  0  0  0  0  0  0  0  0  0  0  0
   13.8163   11.8247    2.8460 H   0  0  0  0  0  0  0  0  0  0  0  0
   12.0300   14.4110    4.3960 C   0  0  0  0  0  0  0  0  0  0  0  0
   11.0183   14.7104    4.7073 H   0  0  0  0  0  0  0  0  0  0  0  0
  1  2  1  0
  2  3  2  0
  2  4  1  0
  1  5  1  0
  6  1  1  0
  1  7  1  0
  8  5  1  0
  9  5  1  0
  5 10  1  6
  6 11  1  0
  6 12  1  0
  6 13  1  0
 14  8  1  0
 15  8  1  0
 16  8  1  0
  9 17  1  0
  9 18  1  0
  9 19  1  0
 17 20  1  0
 17 21  1  0
 17 22  1  0
  4 23  2  0
 24  4  1  0
 23 25  1  0
 23 26  1  0
 24 27  2  0
 24 28  1  0
 25 29  2  0
 29 27  1  0
 30 27  1  0
 29 31  1  0
 30 32  3  0
 32 33  1  0
M  CHG  1   1   1
M  END
$$$$

     RDKit          3D

152160  0  0  0  0  0  0  0  0999 V2000
   28.5860   23.5090   14.4780 N   0  0  0  0  0  4  0  0  0  0  0  0
   27.8820   24.3310   14.0730 C   0  0  0  0  0  0  0  0  0  0  0  0
   26.7830   24.7120   14.5650 O   0  0  0  0  0  0  0  0  0  0  0  0
   28.4290   25.1240   12.8710 C   0  0  1  0  0  0  0  0  0  0  0  0
   29.7570   24.4400   14.5120 C   0  0  2  0  0  0  0  0  0  0  0  0
   28.3001   23.2817   15.4410 H   0  0  0  0  0  0  0  0  0  0  0  0
   28.8493   22.6440   13.9848 H   0  0  0  0  0  0  0  0  0  0  0  0
   30.6110   24.1150   15.7230 C   0  0  0  0  0  0  0  0  0  0  0  0
   29.2730   25.9010   14.5360 C   0  0  0  0  0  0  0  0  0  0  0  0
   30.3682   24.3110   13.6066 H   0  0  0  0  0  0  0  0  0  0  0  0
   29.8900   24.4480   17.0220 C   0  0  0  0  0  0  0  0  0  0  0  0
   30.8512   23.0416   15.7129 H   0  0  0  0  0  0  0  0  0  0  0  0
   31.5266   24.7225   15.6718 H   0  0  0  0  0  0  0  0  0  0  0  0
   29.0140   26.4630   15.9610 C   0  0  2  0  0  0  0  0  0  0  0  0
   28.3349   25.9630   13.9650 H   0  0  0  0  0  0  0  0  0  0  0  0
   30.0792   26.5082   14.0986 H   0  0  0  0  0  0  0  0  0  0  0  0
   28.7750   25.3280   16.8170 O   0  0  0  0  0  0  0  0  0  0  0  0
   29.5247   23.5137   17.4732 H   0  0  0  0  0  0  0  0  0  0  0  0
   30.6057   24.9604   17.6818 H   0  0  0  0  0  0  0  0  0  0  0  0
   27.7090   27.3420   15.9780 C   0  0  0  0  0  0  0  0  0  0  0  0
   30.1630   27.3700   16.5310 C   0  0  2  0  0  0  0  0  0  0  0  0
   27.9550   28.6070   16.7860 N   0  0  1  0  0  4  0  0  0  0  0  0
   27.4372   27.6133   14.9472 H   0  0  0  0  0  0  0  0  0  0  0  0
   26.8895   26.7695   16.4370 H   0  0  0  0  0  0  0  0  0  0  0  0
   29.8730   27.6920   18.0200 C   0  0  0  0  0  0  0  0  0  0  0  0
   30.1980   28.7270   15.7890 C   0  0  0  0  0  0  0  0  0  0  0  0
   31.1139   26.8313   16.4061 H   0  0  0  0  0  0  0  0  0  0  0  0
   28.4710   28.2790   18.1730 C   0  0  0  0  0  0  0  0  0  0  0  0
   28.9190   29.5240   16.0630 C   0  0  0  0  0  0  0  0  0  0  0  0
   27.0543   29.0958   16.8895 H   0  0  0  0  0  0  0  0  0  0  0  0
   30.6128   28.4199   18.3844 H   0  0  0  0  0  0  0  0  0  0  0  0
   29.9375   26.7632   18.6057 H   0  0  0  0  0  0  0  0  0  0  0  0
   31.0664   29.3064   16.1358 H   0  0  0  0  0  0  0  0  0  0  0  0
   30.2737   28.5384   14.7079 H   0  0  0  0  0  0  0  0  0  0  0  0
   28.5121   29.1932   18.7833 H   0  0  0  0  0  0  0  0  0  0  0  0
   27.8046   27.5600   18.6720 H   0  0  0  0  0  0  0  0  0  0  0  0
   29.1485   30.3975   16.6910 H   0  0  0  0  0  0  0  0  0  0  0  0
   28.4782   29.8834   15.1214 H   0  0  0  0  0  0  0  0  0  0  0  0
   27.8930   24.8070   11.4560 C   0  0  1  0  0  0  0  0  0  0  0  0
   28.3280   26.6240   13.1690 C   0  0  0  0  0  0  0  0  0  0  0  0
   29.4685   24.7735   12.7905 H   0  0  0  0  0  0  0  0  0  0  0  0
   27.9020   23.3560   10.9340 C   0  0  2  0  0  0  0  0  0  0  0  0
   26.6210   25.4120   11.1480 O   0  0  0  0  0  0  0  0  0  0  0  0
   28.7069   25.2930   10.8980 H   0  0  0  0  0  0  0  0  0  0  0  0
   28.3174   26.7817   14.2576 H   0  0  0  0  0  0  0  0  0  0  0  0
   29.1932   27.1438   12.7316 H   0  0  0  0  0  0  0  0  0  0  0  0
   27.4009   27.0231   12.7316 H   0  0  0  0  0  0  0  0  0  0  0  0
   26.7110   22.5520   11.4600 C   0  0  0  0  0  0  0  0  0  0  0  0
   29.2290   22.6250   11.1120 C   0  0  0  0  0  0  0  0  0  0  0  0
   27.7850   23.4429    9.8437 H   0  0  0  0  0  0  0  0  0  0  0  0
   25.4990   24.7550   11.7520 C   0  0  2  0  0  0  0  0  0  0  0  0
   25.4100   23.3160   11.2300 C   0  0  0  0  0  0  0  0  0  0  0  0
   26.8413   22.3743   12.5377 H   0  0  0  0  0  0  0  0  0  0  0  0
   26.6619   21.5938   10.9221 H   0  0  0  0  0  0  0  0  0  0  0  0
   29.4420   22.5077   12.1848 H   0  0  0  0  0  0  0  0  0  0  0  0
   29.1676   21.6334   10.6398 H   0  0  0  0  0  0  0  0  0  0  0  0
   30.0343   23.2068   10.6398 H   0  0  0  0  0  0  0  0  0  0  0  0
   24.2460   25.5750   11.4020 C   0  0  0  0  0  0  0  0  0  0  0  0
   25.5987   24.6964   12.8459 H   0  0  0  0  0  0  0  0  0  0  0  0
   24.5939   22.7965   11.7535 H   0  0  0  0  0  0  0  0  0  0  0  0
   25.2212   23.3546   10.1470 H   0  0  0  0  0  0  0  0  0  0  0  0
   22.9900   25.1810   12.2010 C   0  0  2  0  0  0  0  0  0  0  0  0
   24.0314   25.4372   10.3320 H   0  0  0  0  0  0  0  0  0  0  0  0
   24.4701   26.6204   11.6607 H   0  0  0  0  0  0  0  0  0  0  0  0
   21.6690   25.6900   11.6430 C   0  0  0  0  0  0  0  0  0  0  0  0
   23.2140   25.5720   13.5630 O   0  0  0  0  0  0  0  0  0  0  0  0
   22.8591   24.0918   12.1205 H   0  0  0  0  0  0  0  0  0  0  0  0
   21.5200   27.2050   11.7890 C   0  0  2  0  0  0  0  0  0  0  0  0
   20.8452   25.2003   12.1830 H   0  0  0  0  0  0  0  0  0  0  0  0
   21.6444   25.4523   10.5693 H   0  0  0  0  0  0  0  0  0  0  0  0
   22.3720   26.5910   14.1150 C   0  0  1  0  0  0  0  0  0  0  0  0
   22.1590   27.7350   13.0990 C   0  0  2  0  0  0  0  0  0  0  0  0
   20.1400   27.5970   11.6970 O   0  0  0  0  0  0  0  0  0  0  0  0
   22.0693   27.6637   10.9536 H   0  0  0  0  0  0  0  0  0  0  0  0
   21.1180   26.0120   14.5160 O   0  0  0  0  0  0  0  0  0  0  0  0
   23.0170   27.0280   15.4440 C   0  0  1  0  0  0  0  0  0  0  0  0
   21.3980   28.9420   13.6590 C   0  0  0  0  0  0  0  0  0  0  0  0
   23.1632   28.1192   12.8666 H   0  0  0  0  0  0  0  0  0  0  0  0
   19.3060   26.6160   11.0930 C   0  0  0  0  0  0  0  0  0  0  0  0
   21.2200   25.5350   15.8750 C   0  0  1  0  0  0  0  0  0  0  0  0
   22.6380   25.8690   16.3550 C   0  0  0  0  0  0  0  0  0  0  0  0
   24.5160   27.2850   15.4030 C   0  0  0  0  0  0  0  0  0  0  0  0
   22.6592   28.0151   15.7720 H   0  0  0  0  0  0  0  0  0  0  0  0
   21.4180   28.9102   14.7584 H   0  0  0  0  0  0  0  0  0  0  0  0
   21.8747   29.8700   13.3103 H   0  0  0  0  0  0  0  0  0  0  0  0
   20.3552   28.9120   13.3103 H   0  0  0  0  0  0  0  0  0  0  0  0
   18.8057   26.0275   11.8762 H   0  0  0  0  0  0  0  0  0  0  0  0
   18.5493   27.1126   10.4678 H   0  0  0  0  0  0  0  0  0  0  0  0
   19.9179   25.9491   10.4678 H   0  0  0  0  0  0  0  0  0  0  0  0
   20.1890   26.3280   16.6960 C   0  0  0  0  0  0  0  0  0  0  0  0
   20.8670   24.0330   15.9370 C   0  0  1  0  0  0  0  0  0  0  0  0
   22.6405   26.1742   17.4118 H   0  0  0  0  0  0  0  0  0  0  0  0
   23.3347   25.0193   16.3040 H   0  0  0  0  0  0  0  0  0  0  0  0
   24.9048   27.3517   16.4298 H   0  0  0  0  0  0  0  0  0  0  0  0
   25.0153   26.4593   14.8748 H   0  0  0  0  0  0  0  0  0  0  0  0
   24.7117   28.2298   14.8748 H   0  0  0  0  0  0  0  0  0  0  0  0
   20.3820   26.1795   17.7687 H   0  0  0  0  0  0  0  0  0  0  0  0
   20.2714   27.3977   16.4532 H   0  0  0  0  0  0  0  0  0  0  0  0
   19.1763   25.9739   16.4532 H   0  0  0  0  0  0  0  0  0  0  0  0
   19.6630   23.6490   16.7810 C   0  0  0  0  0  0  0  0  0  0  0  0
   20.6200   23.4940   14.6210 O   0  0  0  0  0  0  0  0  0  0  0  0
   21.7611   23.6113   16.4195 H   0  0  0  0  0  0  0  0  0  0  0  0
   19.3350   22.2840   16.2220 C   0  0  0  0  0  0  0  0  0  0  0  0
   19.9201   23.5958   17.8492 H   0  0  0  0  0  0  0  0  0  0  0  0
   18.8314   24.3675   16.7339 H   0  0  0  0  0  0  0  0  0  0  0  0
   19.6230   22.4500   14.7160 C   0  0  2  0  0  0  0  0  0  0  0  0
   19.9787   21.5098   16.6650 H   0  0  0  0  0  0  0  0  0  0  0  0
   18.3043   21.9639   16.4344 H   0  0  0  0  0  0  0  0  0  0  0  0
   20.2280   21.1530   14.1730 C   0  0  0  0  0  0  0  0  0  0  0  0
   18.3350   22.8910   13.9560 C   0  0  2  0  0  0  0  0  0  0  0  0
   20.5284   20.5089   15.0126 H   0  0  0  0  0  0  0  0  0  0  0  0
   19.4812   20.6293   13.5581 H   0  0  0  0  0  0  0  0  0  0  0  0
   21.1091   21.3887   13.5581 H   0  0  0  0  0  0  0  0  0  0  0  0
   17.1780   22.2790   14.5800 O   0  0  0  0  0  0  0  0  0  0  0  0
   18.1890   22.6190   12.4500 C   0  0  2  0  0  0  0  0  0  0  0  0
   18.4179   23.9852   14.0327 H   0  0  0  0  0  0  0  0  0  0  0  0
   16.4330   21.5250   13.6100 C   0  0  2  0  0  0  0  0  0  0  0  0
   17.3520   21.3570   12.4060 C   0  0  0  0  0  0  0  0  0  0  0  0
   19.4320   22.5590   11.5810 C   0  0  0  0  0  0  0  0  0  0  0  0
   17.7322   23.4982   11.9722 H   0  0  0  0  0  0  0  0  0  0  0  0
   15.0990   22.2510   13.2790 C   0  0  1  0  0  0  0  0  0  0  0  0
   16.1364   20.5322   13.9793 H   0  0  0  0  0  0  0  0  0  0  0  0
   17.9805   20.4600   12.5083 H   0  0  0  0  0  0  0  0  0  0  0  0
   16.8106   21.2241   11.4577 H   0  0  0  0  0  0  0  0  0  0  0  0
   20.3253   22.5159   12.2214 H   0  0  0  0  0  0  0  0  0  0  0  0
   19.3924   21.6617   10.9459 H   0  0  0  0  0  0  0  0  0  0  0  0
   19.4790   23.4559   10.9459 H   0  0  0  0  0  0  0  0  0  0  0  0
   14.0510   21.3040   13.0470 O   0  0  0  0  0  0  0  0  0  0  0  0
   14.7320   23.3500   14.2950 C   0  0  2  0  0  0  0  0  0  0  0  0
   15.2475   22.8014   12.3382 H   0  0  0  0  0  0  0  0  0  0  0  0
   13.1850   20.9620   14.1330 C   0  0  1  0  0  0  0  0  0  0  0  0
   14.1430   22.7910   15.5980 C   0  0  0  0  0  0  0  0  0  0  0  0
   13.7760   24.3740   13.6640 C   0  0  0  0  0  0  0  0  0  0  0  0
   15.6720   23.8530   14.5660 H   0  0  0  0  0  0  0  0  0  0  0  0
   13.7440   21.3090   15.5220 C   0  0  1  0  0  0  0  0  0  0  0  0
   11.9570   21.6560   13.9280 O   0  0  0  0  0  0  0  0  0  0  0  0
   12.9020   19.4490   13.9700 C   0  0  0  0  0  0  0  0  0  0  0  0
   13.2474   23.3772   15.8515 H   0  0  0  0  0  0  0  0  0  0  0  0
   14.9317   22.8681   16.3609 H   0  0  0  0  0  0  0  0  0  0  0  0
   13.2572   24.9297   14.4590 H   0  0  0  0  0  0  0  0  0  0  0  0
   14.3497   25.0756   13.0406 H   0  0  0  0  0  0  0  0  0  0  0  0
   13.0367   23.8498   13.0406 H   0  0  0  0  0  0  0  0  0  0  0  0
   12.7870   20.9830   16.6750 C   0  0  0  0  0  0  0  0  0  0  0  0
   14.6299   20.6689   15.6466 H   0  0  0  0  0  0  0  0  0  0  0  0
   11.5558   21.8827   14.8042 H   0  0  0  0  0  0  0  0  0  0  0  0
   14.0570   18.7100   14.4040 O   0  0  0  0  0  0  0  0  0  0  0  0
   12.0323   19.1679   14.5820 H   0  0  0  0  0  0  0  0  0  0  0  0
   12.6883   19.2212   12.9153 H   0  0  0  0  0  0  0  0  0  0  0  0
   13.2963   21.1565   17.6344 H   0  0  0  0  0  0  0  0  0  0  0  0
   11.8995   21.6295   16.6088 H   0  0  0  0  0  0  0  0  0  0  0  0
   12.4787   19.9292   16.6088 H   0  0  0  0  0  0  0  0  0  0  0  0
   14.0848   18.6922   15.3935 H   0  0  0  0  0  0  0  0  0  0  0  0
  1  2  1  0
  2  3  2  0
  2  4  1  0
  1  5  1  0
  1  6  1  0
  1  7  1  0
  8  5  1  0
  9  5  1  0
  5 10  1  6
 11  8  1  0
  8 12  1  0
  8 13  1  0
  9 14  1  0
  9 15  1  0
  9 16  1  0
 17 11  1  0
 11 18  1  0
 11 19  1  0
 14 17  1  1
 20 14  1  0
 21 14  1  0
 22 20  1  0
 20 23  1  0
 20 24  1  0
 21 25  1  0
 26 21  1  0
 21 27  1  1
 28 22  1  0
 29 22  1  0
 22 30  1  1
 25 28  1  0
 25 31  1  0
 25 32  1  0
 29 26  1  0
 26 33  1  0
 26 34  1  0
 28 35  1  0
 28 36  1  0
 29 37  1  0
 29 38  1  0
  4 39  1  0
 40  4  1  0
  4 41  1  6
 39 42  1  0
 43 39  1  0
 39 44  1  6
 40 45  1  0
 40 46  1  0
 40 47  1  0
 42 48  1  0
 49 42  1  0
 42 50  1  6
 43 51  1  0
 48 52  1  0
 48 53  1  0
 48 54  1  0
 49 55  1  0
 49 56  1  0
 49 57  1  0
 51 58  1  0
 52 51  1  0
 51 59  1  1
 52 60  1  0
 52 61  1  0
 58 62  1  0
 58 63  1  0
 58 64  1  0
 62 65  1  0
 66 62  1  0
 62 67  1  1
 65 68  1  0
 65 69  1  0
 65 70  1  0
 71 66  1  6
 72 68  1  0
 73 68  1  0
 68 74  1  6
 72 71  1  0
 75 71  1  0
 76 71  1  0
 77 72  1  0
 72 78  1  6
 73 79  1  0
 80 75  1  0
 76 81  1  0
 82 76  1  0
 76 83  1  1
 77 84  1  0
 77 85  1  0
 77 86  1  0
 79 87  1  0
 79 88  1  0
 79 89  1  0
 81 80  1  0
 80 90  1  1
 91 80  1  0
 81 92  1  0
 81 93  1  0
 82 94  1  0
 82 95  1  0
 82 96  1  0
 90 97  1  0
 90 98  1  0
 90 99  1  0
100 91  1  0
101 91  1  0
 91102  1  1
103100  1  0
100104  1  0
100105  1  0
101106  1  0
106103  1  0
103107  1  0
103108  1  0
106109  1  6
110106  1  0
109111  1  0
109112  1  0
109113  1  0
114110  1  0
115110  1  0
110116  1  6
117114  1  0
115118  1  0
119115  1  0
115120  1  6
118117  1  0
121117  1  0
117122  1  1
118123  1  0
118124  1  0
119125  1  0
119126  1  0
119127  1  0
128121  1  0
129121  1  0
121130  1  6
131128  1  0
129132  1  0
133129  1  0
129134  1  1
135131  1  0
131136  1  6
137131  1  0
132135  1  0
132138  1  0
132139  1  0
133140  1  0
133141  1  0
133142  1  0
143135  1  0
135144  1  1
136145  1  0
146137  1  0
137147  1  0
137148  1  0
143149  1  0
143150  1  0
143151  1  0
146152  1  0
M  CHG  2   1   1  22   1
M  END
$$$$

     RDKit          3D

 50 50  0  0  0  0  0  0  0  0999 V2000
   19.9410   15.0960    3.7750 N   0  0  0  0  0  4  0  0  0  0  0  0
   19.6490   16.2790    3.6350 C   0  0  0  0  0  0  0  0  0  0  0  0
   19.5310   17.1520    2.7140 O   0  0  0  0  0  0  0  0  0  0  0  0
   19.7380   16.8970    5.0780 C   0  0  1  0  0  0  0  0  0  0  0  0
   18.7470   14.8180    4.6470 C   0  0  2  0  0  0  0  0  0  0  0  0
   20.7617   15.2871    4.3673 H   0  0  0  0  0  0  0  0  0  0  0  0
   20.1301   14.2765    3.1803 H   0  0  0  0  0  0  0  0  0  0  0  0
   17.5190   15.7260    4.3110 C   0  0  0  0  0  0  0  0  0  0  0  0
   19.1820   15.0350    6.0940 C   0  0  0  0  0  0  0  0  0  0  0  0
   18.4130   13.7846    4.4723 H   0  0  0  0  0  0  0  0  0  0  0  0
   16.2810   15.0030    3.7490 N   0  0  0  0  0  4  0  0  0  0  0  0
   17.8425   16.4683    3.5665 H   0  0  0  0  0  0  0  0  0  0  0  0
   17.1997   16.1611    5.2695 H   0  0  0  0  0  0  0  0  0  0  0  0
   18.4068   14.6483    6.7718 H   0  0  0  0  0  0  0  0  0  0  0  0
   20.1273   14.5029    6.2764 H   0  0  0  0  0  0  0  0  0  0  0  0
   19.3254   16.1102    6.2764 H   0  0  0  0  0  0  0  0  0  0  0  0
   16.6040   13.6010    3.2460 C   0  0  0  0  0  0  0  0  0  0  0  0
   15.1840   14.9800    4.8400 C   0  0  0  0  0  0  0  0  0  0  0  0
   15.9398   15.5202    2.9262 H   0  0  0  0  0  0  0  0  0  0  0  0
   15.4170   12.9250    2.5710 C   0  0  0  0  0  0  0  0  0  0  0  0
   17.4280   13.6696    2.5205 H   0  0  0  0  0  0  0  0  0  0  0  0
   16.8777   12.9917    4.1200 H   0  0  0  0  0  0  0  0  0  0  0  0
   13.8080   14.8290    4.2090 C   0  0  0  0  0  0  0  0  0  0  0  0
   15.2199   15.9205    5.4093 H   0  0  0  0  0  0  0  0  0  0  0  0
   15.3647   14.1251    5.5082 H   0  0  0  0  0  0  0  0  0  0  0  0
   14.3930   12.3840    3.5620 C   0  0  0  0  0  0  0  0  0  0  0  0
   14.9199   13.6592    1.9199 H   0  0  0  0  0  0  0  0  0  0  0  0
   15.8076   12.0679    2.0028 H   0  0  0  0  0  0  0  0  0  0  0  0
   13.3410   13.3920    4.0060 C   0  0  0  0  0  0  0  0  0  0  0  0
   13.8285   15.3222    3.2260 H   0  0  0  0  0  0  0  0  0  0  0  0
   13.0972   15.2842    4.9144 H   0  0  0  0  0  0  0  0  0  0  0  0
   13.8763   11.5347    3.0911 H   0  0  0  0  0  0  0  0  0  0  0  0
   14.9541   12.1030    4.4654 H   0  0  0  0  0  0  0  0  0  0  0  0
   12.5489   13.4042    3.2428 H   0  0  0  0  0  0  0  0  0  0  0  0
   13.0178   13.0513    5.0007 H   0  0  0  0  0  0  0  0  0  0  0  0
   20.8950   17.8180    5.1640 N   0  0  0  0  0  0  0  0  0  0  0  0
   18.4480   17.6260    5.4750 C   0  0  0  0  0  0  0  0  0  0  0  0
   19.8754   16.0669    5.7866 H   0  0  0  0  0  0  0  0  0  0  0  0
   22.0320   17.5270    5.8410 C   0  0  0  0  0  0  0  0  0  0  0  0
   20.8318   18.7272    4.6840 H   0  0  0  0  0  0  0  0  0  0  0  0
   17.3230   16.6750    5.8620 C   0  0  0  0  0  0  0  0  0  0  0  0
   18.6646   18.2803    6.3323 H   0  0  0  0  0  0  0  0  0  0  0  0
   18.1093   18.1974    4.5982 H   0  0  0  0  0  0  0  0  0  0  0  0
   22.2240   16.5790    6.5880 O   0  0  0  0  0  0  0  0  0  0  0  0
   22.9930   18.4670    5.6360 N   0  0  0  0  0  0  0  0  0  0  0  0
   17.2534   16.6162    6.9582 H   0  0  0  0  0  0  0  0  0  0  0  0
   16.3717   17.0469    5.4536 H   0  0  0  0  0  0  0  0  0  0  0  0
   17.5314   15.6751    5.4536 H   0  0  0  0  0  0  0  0  0  0  0  0
   23.9119   18.3719    6.0914 H   0  0  0  0  0  0  0  0  0  0  0  0
   22.8020   19.2741    5.0253 H   0  0  0  0  0  0  0  0  0  0  0  0
  1  2  1  0
  2  3  2  0
  2  4  1  0
  1  5  1  0
  1  6  1  0
  1  7  1  0
  5  8  1  0
  5  9  1  0
  5 10  1  1
  8 11  1  0
  8 12  1  0
  8 13  1  0
  9 14  1  0
  9 15  1  0
  9 16  1  0
 17 11  1  0
 18 11  1  0
 11 19  1  0
 20 17  1  0
 17 21  1  0
 17 22  1  0
 18 23  1  0
 18 24  1  0
 18 25  1  0
 26 20  1  0
 20 27  1  0
 20 28  1  0
 23 29  1  0
 23 30  1  0
 23 31  1  0
 29 26  1  0
 26 32  1  0
 26 33  1  0
 29 34  1  0
 29 35  1  0
  4 36  1  0
 37  4  1  0
  4 38  1  1
 39 36  1  0
 36 40  1  0
 37 41  1  0
 37 42  1  0
 37 43  1  0
 44 39  2  0
 45 39  1  0
 41 46  1  0
 41 47  1  0
 41 48  1  0
 45 49  1  0
 45 50  1  0
M  CHG  2   1   1  11   1
M  END
$$$$

     RDKit          3D

 43 43  0  0  0  0  0  0  0  0999 V2000
   19.9250   15.6780    3.5750 N   0  0  0  0  0  4  0  0  0  0  0  0
   19.5790   17.0590    2.6260 C   0  0  0  0  0  0  0  0  0  0  0  0
   19.5650   17.6870    1.5280 O   0  0  0  0  0  0  0  0  0  0  0  0
   19.9350   17.8940    3.8570 C   0  0  0  0  0  0  0  0  0  0  0  0
   18.6230   16.3870    3.7020 C   0  0  0  0  0  0  0  0  0  0  0  0
   20.2982   15.4748    4.5132 H   0  0  0  0  0  0  0  0  0  0  0  0
   19.7868   14.7956    3.0619 H   0  0  0  0  0  0  0  0  0  0  0  0
   17.8610   16.0490    5.0150 C   0  0  0  0  0  0  0  0  0  0  0  0
   17.9884   16.1063    2.8485 H   0  0  0  0  0  0  0  0  0  0  0  0
   18.8409   17.4650    3.7214 H   0  0  0  0  0  0  0  0  0  0  0  0
   17.5330   17.3520    5.7830 C   0  0  0  0  0  0  0  0  0  0  0  0
   18.7380   15.1910    5.9580 C   0  0  0  0  0  0  0  0  0  0  0  0
   16.5990   15.2650    4.6020 C   0  0  0  0  0  0  0  0  0  0  0  0
   17.5809   17.1616    6.8653 H   0  0  0  0  0  0  0  0  0  0  0  0
   18.2634   18.1295    5.5148 H   0  0  0  0  0  0  0  0  0  0  0  0
   16.5215   17.6910    5.5148 H   0  0  0  0  0  0  0  0  0  0  0  0
   18.4940   15.4297    7.0037 H   0  0  0  0  0  0  0  0  0  0  0  0
   18.5436   14.1247    5.7703 H   0  0  0  0  0  0  0  0  0  0  0  0
   19.7998   15.4087    5.7703 H   0  0  0  0  0  0  0  0  0  0  0  0
   16.6480   14.3420    3.5410 C   0  0  0  0  0  0  0  0  0  0  0  0
   15.3520   15.4590    5.2230 C   0  0  0  0  0  0  0  0  0  0  0  0
   15.5070   13.6460    3.1310 C   0  0  0  0  0  0  0  0  0  0  0  0
   17.6027   14.1647    3.0241 H   0  0  0  0  0  0  0  0  0  0  0  0
   14.2090   14.7560    4.8110 C   0  0  0  0  0  0  0  0  0  0  0  0
   15.2705   16.1786    6.0510 H   0  0  0  0  0  0  0  0  0  0  0  0
   14.2820   13.8460    3.7620 C   0  0  0  0  0  0  0  0  0  0  0  0
   15.5779   12.9305    2.2985 H   0  0  0  0  0  0  0  0  0  0  0  0
   13.2494   14.9260    5.3212 H   0  0  0  0  0  0  0  0  0  0  0  0
   13.2510   13.1050    3.2610 O   0  0  0  0  0  0  0  0  0  0  0  0
   11.9320   13.5550    3.5430 C   0  0  0  0  0  0  0  0  0  0  0  0
   11.7865   13.6046    4.6322 H   0  0  0  0  0  0  0  0  0  0  0  0
   11.7845   14.5543    3.1075 H   0  0  0  0  0  0  0  0  0  0  0  0
   11.2045   12.8542    3.1075 H   0  0  0  0  0  0  0  0  0  0  0  0
   19.4980   16.9020    5.3090 S   0  0  0  0  0  0  0  0  0  0  0  0
   19.3635   18.8339    3.8549 H   0  0  0  0  0  0  0  0  0  0  0  0
   21.0045   18.1512    3.8628 H   0  0  0  0  0  0  0  0  0  0  0  0
   21.3520   16.1670    5.9380 S   0  0  0  0  0  6  0  0  0  0  0  0
   21.8830   15.3080    4.8960 O   0  0  0  0  0  0  0  0  0  0  0  0
   21.2740   15.7560    7.3240 O   0  0  0  0  0  0  0  0  0  0  0  0
   22.3930   17.6030    5.9370 C   0  0  0  0  0  0  0  0  0  0  0  0
   22.6085   17.9003    6.9739 H   0  0  0  0  0  0  0  0  0  0  0  0
   23.3352   17.3725    5.4182 H   0  0  0  0  0  0  0  0  0  0  0  0
   21.8809   18.4268    5.4182 H   0  0  0  0  0  0  0  0  0  0  0  0
  1  2  1  0
  2  3  2  0
  2  4  1  0
  1  5  1  0
  1  6  1  0
  1  7  1  0
  5  8  1  0
  5  9  1  0
  5 10  1  0
 11  8  1  0
 12  8  1  0
 13  8  1  0
 11 14  1  0
 11 15  1  0
 11 16  1  0
 12 17  1  0
 12 18  1  0
 12 19  1  0
 20 13  2  0
 21 13  1  0
 22 20  1  0
 20 23  1  0
 21 24  2  0
 21 25  1  0
 26 22  2  0
 22 27  1  0
 24 26  1  0
 24 28  1  0
 29 26  1  0
 30 29  1  0
 30 31  1  0
 30 32  1  0
 30 33  1  0
  4 34  1  0
  4 35  1  0
  4 36  1  0
 37 34  1  0
 38 37  2  0
 39 37  2  0
 40 37  1  0
 40 41  1  0
 40 42  1  0
 40 43  1  0
M  CHG  1   1   1
M  END
$$$$

     RDKit          3D

 37 38  0  0  0  0  0  0  0  0999 V2000
   19.5540   15.2310    3.3620 N   0  0  0  0  0  4  0  0  0  0  0  0
   19.9080   15.2990    4.3850 C   0  0  0  0  0  0  0  0  0  0  0  0
   21.0750   15.5150    4.8230 O   0  0  0  0  0  0  0  0  0  0  0  0
   18.8380   15.0460    5.4570 C   0  0  0  0  0  0  0  0  0  0  0  0
   19.5540   16.7370    3.5360 C   0  0  2  0  0  0  0  0  0  0  0  0
   18.3440   14.5380    3.8680 C   0  0  0  0  0  0  0  0  0  0  0  0
   19.6417   15.0262    2.3564 H   0  0  0  0  0  0  0  0  0  0  0  0
   19.6260   17.3600    2.1440 C   0  0  0  0  0  0  0  0  0  0  0  0
   20.7370   17.1590    4.3770 C   0  0  0  0  0  0  0  0  0  0  0  0
   18.6427   17.0732    4.0523 H   0  0  0  0  0  0  0  0  0  0  0  0
   18.3519   14.5425    4.9680 H   0  0  0  0  0  0  0  0  0  0  0  0
   17.4450   15.0582    3.5056 H   0  0  0  0  0  0  0  0  0  0  0  0
   18.3378   13.4994    3.5056 H   0  0  0  0  0  0  0  0  0  0  0  0
   19.7518   18.4489    2.2357 H   0  0  0  0  0  0  0  0  0  0  0  0
   20.4812   16.9369    1.5967 H   0  0  0  0  0  0  0  0  0  0  0  0
   18.6968   17.1431    1.5967 H   0  0  0  0  0  0  0  0  0  0  0  0
   21.0640   16.5130    5.5610 C   0  0  0  0  0  0  0  0  0  0  0  0
   21.4560   18.2260    3.9110 N   0  0  0  0  0  0  0  0  0  0  0  0
   22.1140   16.8920    6.3190 N   0  0  0  0  0  0  0  0  0  0  0  0
   20.4472   15.6645    5.8922 H   0  0  0  0  0  0  0  0  0  0  0  0
   22.5030   18.6030    4.6900 C   0  0  0  0  0  0  0  0  0  0  0  0
   22.8250   17.9500    5.8660 C   0  0  0  0  0  0  0  0  0  0  0  0
   23.1173   19.4590    4.3740 H   0  0  0  0  0  0  0  0  0  0  0  0
   23.6869   18.3023    6.4517 H   0  0  0  0  0  0  0  0  0  0  0  0
   17.7490   16.1020    5.6480 C   0  0  0  0  0  0  0  0  0  0  0  0
   19.3590   14.9358    6.4195 H   0  0  0  0  0  0  0  0  0  0  0  0
   18.2981   14.1561    5.1013 H   0  0  0  0  0  0  0  0  0  0  0  0
   18.2760   17.5130    5.5930 C   0  0  0  0  0  0  0  0  0  0  0  0
   16.3600   15.8560    5.0960 C   0  0  0  0  0  0  0  0  0  0  0  0
   16.5910   15.8260    6.5830 C   0  0  0  0  0  0  0  0  0  0  0  0
   18.4174   17.8917    6.6160 H   0  0  0  0  0  0  0  0  0  0  0  0
   19.2390   17.5243    5.0614 H   0  0  0  0  0  0  0  0  0  0  0  0
   17.5562   18.1528    5.0614 H   0  0  0  0  0  0  0  0  0  0  0  0
   15.7935   16.6838    4.6445 H   0  0  0  0  0  0  0  0  0  0  0  0
   15.9276   15.1593    4.3628 H   0  0  0  0  0  0  0  0  0  0  0  0
   16.1929   16.6318    7.2172 H   0  0  0  0  0  0  0  0  0  0  0  0
   16.3966   15.0980    7.3844 H   0  0  0  0  0  0  0  0  0  0  0  0
  1  2  1  0
  2  3  2  0
  2  4  1  0
  1  5  1  0
  6  1  1  0
  1  7  1  0
  5  8  1  0
  9  5  1  0
  5 10  1  1
  6 11  1  0
  6 12  1  0
  6 13  1  0
  8 14  1  0
  8 15  1  0
  8 16  1  0
 17  9  2  0
 18  9  1  0
 19 17  1  0
 17 20  1  0
 18 21  2  0
 22 19  2  0
 21 22  1  0
 21 23  1  0
 22 24  1  0
 25  4  1  0
  4 26  1  0
  4 27  1  0
 28 25  1  0
 29 25  1  0
 30 25  1  0
 28 31  1  0
 28 32  1  0
 28 33  1  0
 30 29  1  0
 29 34  1  0
 29 35  1  0
 30 36  1  0
 30 37  1  0
M  CHG  1   1   1
M  END
$$$$

     RDKit          3D

 41 43  0  0  0  0  0  0  0  0999 V2000
   19.8860   15.1730    3.8560 N   0  0  0  0  0  4  0  0  0  0  0  0
   18.9800   14.8700    3.9880 C   0  0  0  0  0  0  0  0  0  0  0  0
   19.5480   14.4870    5.0600 O   0  0  0  0  0  0  0  0  0  0  0  0
   17.4900   14.5130    3.8500 C   0  0  0  0  0  0  0  0  0  0  0  0
   20.5440   15.8980    5.0250 C   0  0  1  0  0  0  0  0  0  0  0  0
   18.7840   16.0870    3.3770 C   0  0  1  0  0  0  0  0  0  0  0  0
   20.5701   15.0101    3.1034 H   0  0  0  0  0  0  0  0  0  0  0  0
   19.6880   17.1800    5.0860 C   0  0  2  0  0  0  0  0  0  0  0  0
   20.4580   14.9840    6.2620 C   0  0  0  0  0  0  0  0  0  0  0  0
   21.6137   16.1421    4.9471 H   0  0  0  0  0  0  0  0  0  0  0  0
   18.2970   16.6910    4.6860 C   0  0  0  0  0  0  0  0  0  0  0  0
   19.4680   17.2710    2.6850 C   0  0  0  0  0  0  0  0  0  0  0  0
   18.0343   15.5931    2.7414 H   0  0  0  0  0  0  0  0  0  0  0  0
   20.0540   18.0590    3.8690 C   0  0  0  0  0  0  0  0  0  0  0  0
   19.7933   17.6963    6.0516 H   0  0  0  0  0  0  0  0  0  0  0  0
   21.4300   15.4080    7.2270 O   0  0  0  0  0  0  0  0  0  0  0  0
   19.4510   15.0504    6.6998 H   0  0  0  0  0  0  0  0  0  0  0  0
   20.6572   13.9429    5.9681 H   0  0  0  0  0  0  0  0  0  0  0  0
   17.5725   17.5068    4.5459 H   0  0  0  0  0  0  0  0  0  0  0  0
   17.7443   16.0486    5.3873 H   0  0  0  0  0  0  0  0  0  0  0  0
   20.2614   16.9287    2.0043 H   0  0  0  0  0  0  0  0  0  0  0  0
   18.7862   17.8651    2.0588 H   0  0  0  0  0  0  0  0  0  0  0  0
   19.5936   19.0549    3.9478 H   0  0  0  0  0  0  0  0  0  0  0  0
   21.1346   18.2423    3.7757 H   0  0  0  0  0  0  0  0  0  0  0  0
   21.0779   15.2544    8.1394 H   0  0  0  0  0  0  0  0  0  0  0  0
   16.4320   15.2020    4.3870 N   0  0  0  0  0  0  0  0  0  0  0  0
   17.1230   13.4590    3.1580 N   0  0  0  0  0  0  0  0  0  0  0  0
   15.3020   14.5500    3.9720 C   0  0  0  0  0  0  0  0  0  0  0  0
   16.4400   16.4270    5.1590 C   0  0  0  0  0  0  0  0  0  0  0  0
   15.7530   13.4570    3.2380 N   0  0  0  0  0  0  0  0  0  0  0  0
   14.1400   14.8630    4.1880 O   0  0  0  0  0  0  0  0  0  0  0  0
   16.7990   16.1750    6.6140 C   0  0  0  0  0  0  0  0  0  0  0  0
   17.1784   17.1169    4.7244 H   0  0  0  0  0  0  0  0  0  0  0  0
   15.4286   16.8583    5.1262 H   0  0  0  0  0  0  0  0  0  0  0  0
   14.9510   12.4940    2.5410 C   0  0  0  0  0  0  0  0  0  0  0  0
   16.0729   16.6847    7.2644 H   0  0  0  0  0  0  0  0  0  0  0  0
   16.7760   15.0938    6.8154 H   0  0  0  0  0  0  0  0  0  0  0  0
   17.8080   16.5641    6.8154 H   0  0  0  0  0  0  0  0  0  0  0  0
   14.4234   11.8604    3.2691 H   0  0  0  0  0  0  0  0  0  0  0  0
   14.2171   13.0162    1.9096 H   0  0  0  0  0  0  0  0  0  0  0  0
   15.5974   11.8667    1.9096 H   0  0  0  0  0  0  0  0  0  0  0  0
  1  2  1  0
  2  3  2  0
  2  4  1  0
  1  5  1  0
  6  1  1  0
  1  7  1  0
  8  5  1  0
  9  5  1  0
  5 10  1  6
 11  6  1  0
 12  6  1  0
  6 13  1  6
  8 11  1  0
 14  8  1  0
  8 15  1  1
 16  9  1  0
  9 17  1  0
  9 18  1  0
 11 19  1  0
 11 20  1  0
 12 14  1  0
 12 21  1  0
 12 22  1  0
 14 23  1  0
 14 24  1  0
 16 25  1  0
  4 26  1  0
 27  4  2  0
 28 26  1  0
 29 26  1  0
 30 27  1  0
 28 30  1  0
 31 28  2  0
 29 32  1  0
 29 33  1  0
 29 34  1  0
 35 30  1  0
 32 36  1  0
 32 37  1  0
 32 38  1  0
 35 39  1  0
 35 40  1  0
 35 41  1  0
M  CHG  1   1   1
M  END
$$$$

     RDKit          3D

 40 40  0  0  0  0  0  0  0  0999 V2000
   18.0370   14.7840    3.7180 N   0  0  0  0  0  0  0  0  0  0  0  0
   18.7120   15.5750    3.8970 C   0  0  0  0  0  0  0  0  0  0  0  0
   19.8810   15.1480    3.6920 O   0  0  0  0  0  0  0  0  0  0  0  0
   18.5910   16.9200    4.6210 C   0  0  0  0  0  0  0  0  0  0  0  0
   16.6670   14.5300    3.8640 C   0  0  0  0  0  0  0  0  0  0  0  0
   18.5969   14.2254    3.0582 H   0  0  0  0  0  0  0  0  0  0  0  0
   16.0420   13.5260    3.1260 C   0  0  0  0  0  0  0  0  0  0  0  0
   15.8220   15.3990    4.5590 C   0  0  0  0  0  0  0  0  0  0  0  0
   14.7140   13.2620    3.1220 N   0  0  0  0  0  0  0  0  0  0  0  0
   16.6824   12.8943    2.4928 H   0  0  0  0  0  0  0  0  0  0  0  0
   14.4400   15.1390    4.5620 C   0  0  0  0  0  0  0  0  0  0  0  0
   16.3460   16.5990    5.2940 C   0  0  0  0  0  0  0  0  0  0  0  0
   13.9100   14.0560    3.8560 C   0  0  0  0  0  0  0  0  0  0  0  0
   13.7660   15.7982    5.1287 H   0  0  0  0  0  0  0  0  0  0  0  0
   16.2708   16.4268    6.3778 H   0  0  0  0  0  0  0  0  0  0  0  0
   17.3986   16.7652    5.0213 H   0  0  0  0  0  0  0  0  0  0  0  0
   15.7524   17.4840    5.0213 H   0  0  0  0  0  0  0  0  0  0  0  0
   12.5170   13.8250    3.8800 N   0  0  0  0  0  0  0  0  0  0  0  0
   12.0230   13.5450    5.2290 C   0  0  0  0  0  0  0  0  0  0  0  0
   12.0930   12.8480    2.8770 C   0  0  0  0  0  0  0  0  0  0  0  0
   12.7308   13.9462    5.9693 H   0  0  0  0  0  0  0  0  0  0  0  0
   11.0406   14.0205    5.3658 H   0  0  0  0  0  0  0  0  0  0  0  0
   11.9263   12.4578    5.3658 H   0  0  0  0  0  0  0  0  0  0  0  0
   11.7037   11.9509    3.3806 H   0  0  0  0  0  0  0  0  0  0  0  0
   11.3044   13.2868    2.2481 H   0  0  0  0  0  0  0  0  0  0  0  0
   12.9522   12.5717    2.2481 H   0  0  0  0  0  0  0  0  0  0  0  0
   19.6390   17.9550    4.2260 C   0  0  0  0  0  0  0  0  0  0  0  0
   18.6817   16.7363    5.7018 H   0  0  0  0  0  0  0  0  0  0  0  0
   17.6163   17.3405    4.3327 H   0  0  0  0  0  0  0  0  0  0  0  0
   20.5700   18.2870    5.3920 C   0  0  0  0  0  0  0  0  0  0  0  0
   19.1287   18.8746    3.9038 H   0  0  0  0  0  0  0  0  0  0  0  0
   20.2459   17.5357    3.4100 H   0  0  0  0  0  0  0  0  0  0  0  0
   21.9520   17.6770    5.1780 C   0  0  0  0  0  0  0  0  0  0  0  0
   20.1397   17.8860    6.3215 H   0  0  0  0  0  0  0  0  0  0  0  0
   20.6752   19.3800    5.4566 H   0  0  0  0  0  0  0  0  0  0  0  0
   22.3740   16.9600    6.3900 N   0  0  0  0  0  0  0  0  0  0  0  0
   21.9138   16.9741    4.3327 H   0  0  0  0  0  0  0  0  0  0  0  0
   22.6730   18.4790    4.9614 H   0  0  0  0  0  0  0  0  0  0  0  0
   21.6120   16.0560    6.7760 N   0  0  0  0  0  4  0  0  0  0  0  0
   20.9250   15.2200    7.1350 N   0  0  0  0  0  2  0  0  0  0  0  0
  1  2  1  0
  2  3  2  0
  2  4  1  0
  1  5  1  0
  1  6  1  0
  5  7  2  0
  8  5  1  0
  7  9  1  0
  7 10  1  0
 11  8  2  0
 12  8  1  0
  9 13  2  0
 11 13  1  0
 11 14  1  0
 12 15  1  0
 12 16  1  0
 12 17  1  0
 13 18  1  0
 18 19  1  0
 20 18  1  0
 19 21  1  0
 19 22  1  0
 19 23  1  0
 20 24  1  0
 20 25  1  0
 20 26  1  0
  4 27  1  0
  4 28  1  0
  4 29  1  0
 27 30  1  0
 27 31  1  0
 27 32  1  0
 33 30  1  0
 30 34  1  0
 30 35  1  0
 36 33  1  0
 33 37  1  0
 33 38  1  0
 36 39  2  0
 39 40  2  0
M  CHG  2  39   1  40  -1
M  END
$$$$

     RDKit          3D

 40 41  0  0  0  0  0  0  0  0999 V2000
   18.5080   14.6540    4.3290 N   0  0  0  0  0  4  0  0  0  0  0  0
   18.7120   15.5750    3.8970 C   0  0  0  0  0  0  0  0  0  0  0  0
   19.8810   15.1480    3.6920 O   0  0  0  0  0  0  0  0  0  0  0  0
   18.5910   16.9200    4.6210 C   0  0  0  0  0  0  0  0  0  0  0  0
   17.2420   15.2630    3.8820 C   0  0  1  0  0  0  0  0  0  0  0  0
   18.5375   14.6398    5.3585 H   0  0  0  0  0  0  0  0  0  0  0  0
   18.5709   13.6905    3.9704 H   0  0  0  0  0  0  0  0  0  0  0  0
   16.1700   14.2660    3.5790 C   0  0  0  0  0  0  0  0  0  0  0  0
   16.6120   16.0630    5.0350 C   0  0  0  0  0  0  0  0  0  0  0  0
   17.5219   15.8482    2.9936 H   0  0  0  0  0  0  0  0  0  0  0  0
   16.2360   13.1050    2.8270 C   0  0  0  0  0  0  0  0  0  0  0  0
   14.9510   14.6940    4.1170 C   0  0  0  0  0  0  0  0  0  0  0  0
   15.0950   16.0200    4.8010 C   0  0  0  0  0  0  0  0  0  0  0  0
   16.9717   17.1024    5.0202 H   0  0  0  0  0  0  0  0  0  0  0  0
   16.8808   15.6387    6.0136 H   0  0  0  0  0  0  0  0  0  0  0  0
   15.0640   12.3610    2.6500 C   0  0  0  0  0  0  0  0  0  0  0  0
   17.1857   12.7759    2.3801 H   0  0  0  0  0  0  0  0  0  0  0  0
   13.7870   13.9650    3.9300 C   0  0  0  0  0  0  0  0  0  0  0  0
   14.7618   16.8462    4.1557 H   0  0  0  0  0  0  0  0  0  0  0  0
   14.4912   16.1282    5.7141 H   0  0  0  0  0  0  0  0  0  0  0  0
   13.8460   12.7550    3.2330 C   0  0  0  0  0  0  0  0  0  0  0  0
   15.0960   11.4460    2.0403 H   0  0  0  0  0  0  0  0  0  0  0  0
   12.8291   14.3341    4.3251 H   0  0  0  0  0  0  0  0  0  0  0  0
   12.6710   12.0690    2.9200 N   0  0  0  0  0  0  0  0  0  0  0  0
   11.7781   12.3559    3.3458 H   0  0  0  0  0  0  0  0  0  0  0  0
   12.6970   11.2760    2.2633 H   0  0  0  0  0  0  0  0  0  0  0  0
   19.6390   17.9550    4.2260 C   0  0  0  0  0  0  0  0  0  0  0  0
   18.6817   16.7363    5.7018 H   0  0  0  0  0  0  0  0  0  0  0  0
   17.6163   17.3405    4.3327 H   0  0  0  0  0  0  0  0  0  0  0  0
   20.5700   18.2870    5.3920 C   0  0  0  0  0  0  0  0  0  0  0  0
   19.1287   18.8746    3.9038 H   0  0  0  0  0  0  0  0  0  0  0  0
   20.2459   17.5357    3.4100 H   0  0  0  0  0  0  0  0  0  0  0  0
   21.9520   17.6770    5.1780 C   0  0  0  0  0  0  0  0  0  0  0  0
   20.1397   17.8860    6.3215 H   0  0  0  0  0  0  0  0  0  0  0  0
   20.6752   19.3800    5.4566 H   0  0  0  0  0  0  0  0  0  0  0  0
   22.3740   16.9600    6.3900 N   0  0  0  0  0  0  0  0  0  0  0  0
   21.9138   16.9741    4.3327 H   0  0  0  0  0  0  0  0  0  0  0  0
   22.6730   18.4790    4.9614 H   0  0  0  0  0  0  0  0  0  0  0  0
   21.6120   16.0560    6.7760 N   0  0  0  0  0  4  0  0  0  0  0  0
   20.9250   15.2200    7.1350 N   0  0  0  0  0  2  0  0  0  0  0  0
  1  2  1  0
  2  3  2  0
  2  4  1  0
  1  5  1  0
  1  6  1  0
  1  7  1  0
  5  8  1  0
  5  9  1  0
  5 10  1  6
  8 11  2  0
 12  8  1  0
  9 13  1  0
  9 14  1  0
  9 15  1  0
 11 16  1  0
 11 17  1  0
 18 12  2  0
 13 12  1  0
 13 19  1  0
 13 20  1  0
 16 21  2  0
 16 22  1  0
 18 21  1  0
 18 23  1  0
 24 21  1  0
 24 25  1  0
 24 26  1  0
  4 27  1  0
  4 28  1  0
  4 29  1  0
 27 30  1  0
 27 31  1  0
 27 32  1  0
 33 30  1  0
 30 34  1  0
 30 35  1  0
 36 33  1  0
 33 37  1  0
 33 38  1  0
 36 39  2  0
 39 40  2  0
M  CHG  3   1   1  39   1  40  -1
M  END
$$$$

     RDKit          3D

 40 41  0  0  0  0  0  0  0  0999 V2000
   19.9360   15.3790    3.8990 N   0  0  0  0  0  4  0  0  0  0  0  0
   18.9800   14.8700    3.9880 C   0  0  0  0  0  0  0  0  0  0  0  0
   19.5480   14.4870    5.0600 O   0  0  0  0  0  0  0  0  0  0  0  0
   17.4900   14.5130    3.8500 C   0  0  0  0  0  0  0  0  0  0  0  0
   19.2550   16.6800    3.6240 C   0  0  2  0  0  0  0  0  0  0  0  0
   19.3889   14.6108    3.4849 H   0  0  0  0  0  0  0  0  0  0  0  0
   20.8790   15.3908    3.4849 H   0  0  0  0  0  0  0  0  0  0  0  0
   20.2010   17.6370    2.8990 C   0  0  0  0  0  0  0  0  0  0  0  0
   18.6950   17.2710    4.9250 C   0  0  0  0  0  0  0  0  0  0  0  0
   18.4002   16.5110    2.9527 H   0  0  0  0  0  0  0  0  0  0  0  0
   21.3120   18.2680    3.7550 C   0  0  0  0  0  0  0  0  0  0  0  0
   20.6821   17.0793    2.0820 H   0  0  0  0  0  0  0  0  0  0  0  0
   19.5732   18.4760    2.5645 H   0  0  0  0  0  0  0  0  0  0  0  0
   19.4900   18.4680    5.4810 C   0  0  0  0  0  0  0  0  0  0  0  0
   17.6636   17.6029    4.7349 H   0  0  0  0  0  0  0  0  0  0  0  0
   18.7601   16.4754    5.6818 H   0  0  0  0  0  0  0  0  0  0  0  0
   21.0030   18.3580    5.2610 C   0  0  1  0  0  0  0  0  0  0  0  0
   22.2234   17.6650    3.6293 H   0  0  0  0  0  0  0  0  0  0  0  0
   21.4208   19.3040    3.4016 H   0  0  0  0  0  0  0  0  0  0  0  0
   19.3005   18.5388    6.5622 H   0  0  0  0  0  0  0  0  0  0  0  0
   19.1499   19.3610    4.9361 H   0  0  0  0  0  0  0  0  0  0  0  0
   21.5080   17.1430    5.9200 C   0  0  0  0  0  0  0  0  0  0  0  0
   21.4891   19.2490    5.6850 H   0  0  0  0  0  0  0  0  0  0  0  0
   21.6630   16.2390    6.6320 N   0  0  0  0  0  0  0  0  0  0  0  0
   16.4320   15.2020    4.3870 N   0  0  0  0  0  0  0  0  0  0  0  0
   17.1230   13.4590    3.1580 N   0  0  0  0  0  0  0  0  0  0  0  0
   15.3020   14.5500    3.9720 C   0  0  0  0  0  0  0  0  0  0  0  0
   16.4400   16.4270    5.1590 C   0  0  0  0  0  0  0  0  0  0  0  0
   15.7530   13.4570    3.2380 N   0  0  0  0  0  0  0  0  0  0  0  0
   14.1400   14.8630    4.1880 O   0  0  0  0  0  0  0  0  0  0  0  0
   16.7990   16.1750    6.6140 C   0  0  0  0  0  0  0  0  0  0  0  0
   17.1784   17.1169    4.7244 H   0  0  0  0  0  0  0  0  0  0  0  0
   15.4286   16.8583    5.1262 H   0  0  0  0  0  0  0  0  0  0  0  0
   14.9510   12.4940    2.5410 C   0  0  0  0  0  0  0  0  0  0  0  0
   16.0729   16.6847    7.2644 H   0  0  0  0  0  0  0  0  0  0  0  0
   16.7760   15.0938    6.8154 H   0  0  0  0  0  0  0  0  0  0  0  0
   17.8080   16.5641    6.8154 H   0  0  0  0  0  0  0  0  0  0  0  0
   14.4234   11.8604    3.2691 H   0  0  0  0  0  0  0  0  0  0  0  0
   14.2171   13.0162    1.9096 H   0  0  0  0  0  0  0  0  0  0  0  0
   15.5974   11.8667    1.9096 H   0  0  0  0  0  0  0  0  0  0  0  0
  1  2  1  0
  2  3  2  0
  2  4  1  0
  1  5  1  0
  1  6  1  0
  1  7  1  0
  8  5  1  0
  9  5  1  0
  5 10  1  6
 11  8  1  0
  8 12  1  0
  8 13  1  0
  9 14  1  0
  9 15  1  0
  9 16  1  0
 17 11  1  0
 11 18  1  0
 11 19  1  0
 14 17  1  0
 14 20  1  0
 14 21  1  0
 22 17  1  0
 17 23  1  1
 24 22  3  0
  4 25  1  0
 26  4  2  0
 27 25  1  0
 28 25  1  0
 29 26  1  0
 27 29  1  0
 30 27  2  0
 28 31  1  0
 28 32  1  0
 28 33  1  0
 34 29  1  0
 31 35  1  0
 31 36  1  0
 31 37  1  0
 34 38  1  0
 34 39  1  0
 34 40  1  0
M  CHG  1   1   1
M  END
$$$$

     RDKit          3D

 40 42  0  0  0  0  0  0  0  0999 V2000
   19.9360   15.3790    3.8990 N   0  0  0  0  0  4  0  0  0  0  0  0
   19.0480   15.0890    4.0010 C   0  0  0  0  0  0  0  0  0  0  0  0
   19.6550   14.7440    5.0650 O   0  0  0  0  0  0  0  0  0  0  0  0
   17.5040   14.6990    3.8900 C   0  0  0  0  0  0  0  0  0  0  0  0
   19.2550   16.6800    3.6240 C   0  0  2  0  0  0  0  0  0  0  0  0
   19.3889   14.6108    3.4849 H   0  0  0  0  0  0  0  0  0  0  0  0
   20.8790   15.3908    3.4849 H   0  0  0  0  0  0  0  0  0  0  0  0
   20.2010   17.6370    2.8990 C   0  0  0  0  0  0  0  0  0  0  0  0
   18.6950   17.2710    4.9250 C   0  0  0  0  0  0  0  0  0  0  0  0
   18.4002   16.5110    2.9527 H   0  0  0  0  0  0  0  0  0  0  0  0
   21.3120   18.2680    3.7550 C   0  0  0  0  0  0  0  0  0  0  0  0
   20.6821   17.0793    2.0820 H   0  0  0  0  0  0  0  0  0  0  0  0
   19.5732   18.4760    2.5645 H   0  0  0  0  0  0  0  0  0  0  0  0
   19.4900   18.4680    5.4810 C   0  0  0  0  0  0  0  0  0  0  0  0
   17.6636   17.6029    4.7349 H   0  0  0  0  0  0  0  0  0  0  0  0
   18.7601   16.4754    5.6818 H   0  0  0  0  0  0  0  0  0  0  0  0
   21.0030   18.3580    5.2610 C   0  0  1  0  0  0  0  0  0  0  0  0
   22.2234   17.6650    3.6293 H   0  0  0  0  0  0  0  0  0  0  0  0
   21.4208   19.3040    3.4016 H   0  0  0  0  0  0  0  0  0  0  0  0
   19.3005   18.5388    6.5622 H   0  0  0  0  0  0  0  0  0  0  0  0
   19.1499   19.3610    4.9361 H   0  0  0  0  0  0  0  0  0  0  0  0
   21.5080   17.1430    5.9200 C   0  0  0  0  0  0  0  0  0  0  0  0
   21.4891   19.2490    5.6850 H   0  0  0  0  0  0  0  0  0  0  0  0
   21.6630   16.2390    6.6320 N   0  0  0  0  0  0  0  0  0  0  0  0
   16.9800   13.5960    3.2040 N   0  0  0  0  0  0  0  0  0  0  0  0
   16.4760   15.4150    4.4660 C   0  0  0  0  0  0  0  0  0  0  0  0
   15.6780   13.6650    3.3750 C   0  0  0  0  0  0  0  0  0  0  0  0
   15.3210   14.7640    4.1430 N   0  0  0  0  0  0  0  0  0  0  0  0
   16.5580   16.5310    5.2040 F   0  0  0  0  0  0  0  0  0  0  0  0
   14.6250   12.8240    2.9160 C   0  0  0  0  0  0  0  0  0  0  0  0
   14.0040   15.0740    4.4770 C   0  0  0  0  0  0  0  0  0  0  0  0
   13.3400   13.1070    3.2290 C   0  0  0  0  0  0  0  0  0  0  0  0
   14.8575   11.9400    2.3040 H   0  0  0  0  0  0  0  0  0  0  0  0
   13.0120   14.2790    4.0430 C   0  0  0  0  0  0  0  0  0  0  0  0
   13.7793   15.9598    5.0892 H   0  0  0  0  0  0  0  0  0  0  0  0
   12.1930   12.2570    2.7710 C   0  0  0  0  0  0  0  0  0  0  0  0
   11.9658   14.5058    4.2961 H   0  0  0  0  0  0  0  0  0  0  0  0
   11.6580   11.8605    3.6465 H   0  0  0  0  0  0  0  0  0  0  0  0
   11.5050   12.8650    2.1652 H   0  0  0  0  0  0  0  0  0  0  0  0
   12.5745   11.4218    2.1652 H   0  0  0  0  0  0  0  0  0  0  0  0
  1  2  1  0
  2  3  2  0
  2  4  1  0
  1  5  1  0
  1  6  1  0
  1  7  1  0
  8  5  1  0
  9  5  1  0
  5 10  1  6
 11  8  1  0
  8 12  1  0
  8 13  1  0
  9 14  1  0
  9 15  1  0
  9 16  1  0
 17 11  1  0
 11 18  1  0
 11 19  1  0
 14 17  1  0
 14 20  1  0
 14 21  1  0
 22 17  1  0
 17 23  1  1
 24 22  3  0
  4 25  1  0
 26  4  2  0
 25 27  2  0
 26 28  1  0
 29 26  1  0
 27 28  1  0
 30 27  1  0
 28 31  1  0
 30 32  2  0
 30 33  1  0
 31 34  2  0
 31 35  1  0
 32 36  1  0
 34 32  1  0
 34 37  1  0
 36 38  1  0
 36 39  1  0
 36 40  1  0
M  CHG  1   1   1
M  END
$$$$

     RDKit          3D

 38 39  0  0  0  0  0  0  0  0999 V2000
   19.5970   14.9080    3.5200 N   0  0  0  0  0  4  0  0  0  0  0  0
   19.4970   16.9670    2.9480 C   0  0  0  0  0  0  0  0  0  0  0  0
   19.5220   17.8710    2.0670 O   0  0  0  0  0  0  0  0  0  0  0  0
   19.3920   17.4600    4.4030 C   0  0  0  0  0  0  0  0  0  0  0  0
   19.0210   15.1060    4.8810 C   0  0  0  0  0  0  0  0  0  0  0  0
   20.5679   14.5743    3.6033 H   0  0  0  0  0  0  0  0  0  0  0  0
   19.0371   14.2112    3.0083 H   0  0  0  0  0  0  0  0  0  0  0  0
   17.6710   15.8100    4.7580 C   0  0  0  0  0  0  0  0  0  0  0  0
   19.7041   15.7230    5.4833 H   0  0  0  0  0  0  0  0  0  0  0  0
   18.8855   14.1302    5.3703 H   0  0  0  0  0  0  0  0  0  0  0  0
   17.0940   15.3730    3.5250 O   0  0  0  0  0  0  0  0  0  0  0  0
   17.8114   16.9009    4.7459 H   0  0  0  0  0  0  0  0  0  0  0  0
   17.0181   15.5681    5.6096 H   0  0  0  0  0  0  0  0  0  0  0  0
   15.9230   14.6710    3.6030 C   0  0  0  0  0  0  0  0  0  0  0  0
   15.9160   13.4680    2.8970 C   0  0  0  0  0  0  0  0  0  0  0  0
   14.7790   15.0530    4.3060 C   0  0  0  0  0  0  0  0  0  0  0  0
   14.7770   12.6590    2.8890 C   0  0  0  0  0  0  0  0  0  0  0  0
   16.8130   13.1543    2.3430 H   0  0  0  0  0  0  0  0  0  0  0  0
   13.6370   14.2390    4.2970 C   0  0  0  0  0  0  0  0  0  0  0  0
   14.7733   15.9974    4.8700 H   0  0  0  0  0  0  0  0  0  0  0  0
   13.6310   13.0390    3.5880 C   0  0  0  0  0  0  0  0  0  0  0  0
   14.7839   11.7138    2.3264 H   0  0  0  0  0  0  0  0  0  0  0  0
   12.7402   14.5496    4.8531 H   0  0  0  0  0  0  0  0  0  0  0  0
   12.5910   12.1600    3.4960 O   0  0  0  0  0  0  0  0  0  0  0  0
   11.6270   12.3960    2.4750 C   0  0  0  0  0  0  0  0  0  0  0  0
   10.6564   12.6336    2.9350 H   0  0  0  0  0  0  0  0  0  0  0  0
   11.9535   13.2407    1.8506 H   0  0  0  0  0  0  0  0  0  0  0  0
   11.5263   11.4960    1.8506 H   0  0  0  0  0  0  0  0  0  0  0  0
   20.3630   16.8540    5.3200 N   0  0  0  0  0  0  0  0  0  0  0  0
   18.3813   17.2309    4.7717 H   0  0  0  0  0  0  0  0  0  0  0  0
   19.6080   18.5384    4.3852 H   0  0  0  0  0  0  0  0  0  0  0  0
   20.0910   15.8330    6.1630 C   0  0  0  0  0  0  0  0  0  0  0  0
   21.6920   17.1130    5.4930 C   0  0  0  0  0  0  0  0  0  0  0  0
   21.0930   15.4300    6.8850 N   0  0  0  0  0  0  0  0  0  0  0  0
   19.0928   15.3761    6.2327 H   0  0  0  0  0  0  0  0  0  0  0  0
   22.1240   16.2300    6.4770 N   0  0  0  0  0  0  0  0  0  0  0  0
   22.6840   18.2270    4.7710 S   0  0  0  0  0  0  0  0  0  0  0  0
   23.0846   16.1851    6.8461 H   0  0  0  0  0  0  0  0  0  0  0  0
  1  2  1  0
  2  3  2  0
  2  4  1  0
  1  5  1  0
  1  6  1  0
  1  7  1  0
  5  8  1  0
  5  9  1  0
  5 10  1  0
  8 11  1  0
  8 12  1  0
  8 13  1  0
 11 14  1  0
 15 14  2  0
 16 14  1  0
 17 15  1  0
 15 18  1  0
 16 19  2  0
 16 20  1  0
 21 17  2  0
 17 22  1  0
 19 21  1  0
 19 23  1  0
 24 21  1  0
 25 24  1  0
 25 26  1  0
 25 27  1  0
 25 28  1  0
  4 29  1  0
  4 30  1  0
  4 31  1  0
 32 29  1  0
 33 29  1  0
 34 32  2  0
 32 35  1  0
 33 36  1  0
 37 33  2  0
 36 34  1  0
 36 38  1  0
M  CHG  1   1   1
M  END
$$$$

     RDKit          3D

 38 38  0  0  0  0  0  0  0  0999 V2000
   19.5970   14.9080    3.5200 N   0  0  0  0  0  4  0  0  0  0  0  0
   19.5790   17.0590    2.6260 C   0  0  0  0  0  0  0  0  0  0  0  0
   19.5650   17.6870    1.5280 O   0  0  0  0  0  0  0  0  0  0  0  0
   19.9350   17.8940    3.8570 C   0  0  0  0  0  0  0  0  0  0  0  0
   19.0210   15.1060    4.8810 C   0  0  0  0  0  0  0  0  0  0  0  0
   20.5679   14.5743    3.6033 H   0  0  0  0  0  0  0  0  0  0  0  0
   19.0371   14.2112    3.0083 H   0  0  0  0  0  0  0  0  0  0  0  0
   17.6710   15.8100    4.7580 C   0  0  0  0  0  0  0  0  0  0  0  0
   19.7041   15.7230    5.4833 H   0  0  0  0  0  0  0  0  0  0  0  0
   18.8855   14.1302    5.3703 H   0  0  0  0  0  0  0  0  0  0  0  0
   17.0940   15.3730    3.5250 O   0  0  0  0  0  0  0  0  0  0  0  0
   17.8114   16.9009    4.7459 H   0  0  0  0  0  0  0  0  0  0  0  0
   17.0181   15.5681    5.6096 H   0  0  0  0  0  0  0  0  0  0  0  0
   15.9230   14.6710    3.6030 C   0  0  0  0  0  0  0  0  0  0  0  0
   15.9160   13.4680    2.8970 C   0  0  0  0  0  0  0  0  0  0  0  0
   14.7790   15.0530    4.3060 C   0  0  0  0  0  0  0  0  0  0  0  0
   14.7770   12.6590    2.8890 C   0  0  0  0  0  0  0  0  0  0  0  0
   16.8130   13.1543    2.3430 H   0  0  0  0  0  0  0  0  0  0  0  0
   13.6370   14.2390    4.2970 C   0  0  0  0  0  0  0  0  0  0  0  0
   14.7733   15.9974    4.8700 H   0  0  0  0  0  0  0  0  0  0  0  0
   13.6310   13.0390    3.5880 C   0  0  0  0  0  0  0  0  0  0  0  0
   14.7839   11.7138    2.3264 H   0  0  0  0  0  0  0  0  0  0  0  0
   12.7402   14.5496    4.8531 H   0  0  0  0  0  0  0  0  0  0  0  0
   12.5910   12.1600    3.4960 O   0  0  0  0  0  0  0  0  0  0  0  0
   11.6270   12.3960    2.4750 C   0  0  0  0  0  0  0  0  0  0  0  0
   10.6564   12.6336    2.9350 H   0  0  0  0  0  0  0  0  0  0  0  0
   11.9535   13.2407    1.8506 H   0  0  0  0  0  0  0  0  0  0  0  0
   11.5263   11.4960    1.8506 H   0  0  0  0  0  0  0  0  0  0  0  0
   19.4980   16.9020    5.3090 S   0  0  0  0  0  0  0  0  0  0  0  0
   19.3635   18.8339    3.8549 H   0  0  0  0  0  0  0  0  0  0  0  0
   21.0045   18.1512    3.8628 H   0  0  0  0  0  0  0  0  0  0  0  0
   21.3520   16.1670    5.9380 S   0  0  0  0  0  6  0  0  0  0  0  0
   21.8830   15.3080    4.8960 O   0  0  0  0  0  0  0  0  0  0  0  0
   21.2740   15.7560    7.3240 O   0  0  0  0  0  0  0  0  0  0  0  0
   22.3930   17.6030    5.9370 C   0  0  0  0  0  0  0  0  0  0  0  0
   22.6085   17.9003    6.9739 H   0  0  0  0  0  0  0  0  0  0  0  0
   23.3352   17.3725    5.4182 H   0  0  0  0  0  0  0  0  0  0  0  0
   21.8809   18.4268    5.4182 H   0  0  0  0  0  0  0  0  0  0  0  0
  1  2  1  0
  2  3  2  0
  2  4  1  0
  1  5  1  0
  1  6  1  0
  1  7  1  0
  5  8  1  0
  5  9  1  0
  5 10  1  0
  8 11  1  0
  8 12  1  0
  8 13  1  0
 11 14  1  0
 15 14  2  0
 16 14  1  0
 17 15  1  0
 15 18  1  0
 16 19  2  0
 16 20  1  0
 21 17  2  0
 17 22  1  0
 19 21  1  0
 19 23  1  0
 24 21  1  0
 25 24  1  0
 25 26  1  0
 25 27  1  0
 25 28  1  0
  4 29  1  0
  4 30  1  0
  4 31  1  0
 32 29  1  0
 33 32  2  0
 34 32  2  0
 35 32  1  0
 35 36  1  0
 35 37  1  0
 35 38  1  0
M  CHG  1   1   1
M  END
$$$$

     RDKit          3D

 43 44  0  0  0  0  0  0  0  0999 V2000
   19.7050   15.2780    3.4920 N   0  0  0  0  0  4  0  0  0  0  0  0
   19.8280   16.2790    3.9320 C   0  0  0  0  0  0  0  0  0  0  0  0
   20.3040   17.2460    3.2620 O   0  0  0  0  0  0  0  0  0  0  0  0
   19.6610   16.5380    5.4090 C   0  0  2  0  0  0  0  0  0  0  0  0
   18.6840   14.2700    3.8990 C   0  0  0  0  0  0  0  0  0  0  0  0
   20.4366   14.8185    2.9312 H   0  0  0  0  0  0  0  0  0  0  0  0
   19.2549   16.0154    2.9312 H   0  0  0  0  0  0  0  0  0  0  0  0
   17.2800   14.8690    3.8850 C   0  0  0  0  0  0  0  0  0  0  0  0
   18.9134   13.9173    4.9154 H   0  0  0  0  0  0  0  0  0  0  0  0
   18.7137   13.4357    3.1827 H   0  0  0  0  0  0  0  0  0  0  0  0
   16.3070   13.8790    3.4770 N   0  0  0  0  0  0  0  0  0  0  0  0
   17.2542   15.7129    3.1799 H   0  0  0  0  0  0  0  0  0  0  0  0
   17.0314   15.2127    4.8999 H   0  0  0  0  0  0  0  0  0  0  0  0
   16.5850   12.7580    2.7500 C   0  0  0  0  0  0  0  0  0  0  0  0
   14.9510   13.9360    3.6870 C   0  0  0  0  0  0  0  0  0  0  0  0
   15.4890   12.1140    2.4300 N   0  0  0  0  0  0  0  0  0  0  0  0
   17.5986   12.4362    2.4687 H   0  0  0  0  0  0  0  0  0  0  0  0
   14.4640   12.8180    3.0110 C   0  0  0  0  0  0  0  0  0  0  0  0
   14.1150   14.8270    4.3720 C   0  0  0  0  0  0  0  0  0  0  0  0
   13.0860   12.5610    3.0000 C   0  0  0  0  0  0  0  0  0  0  0  0
   12.7420   14.5500    4.3520 C   0  0  0  0  0  0  0  0  0  0  0  0
   14.5178   15.7033    4.9009 H   0  0  0  0  0  0  0  0  0  0  0  0
   12.2330   13.4400    3.6770 C   0  0  0  0  0  0  0  0  0  0  0  0
   12.6830   11.6856    2.4696 H   0  0  0  0  0  0  0  0  0  0  0  0
   12.0499   15.2224    4.8801 H   0  0  0  0  0  0  0  0  0  0  0  0
   11.1489   13.2537    3.6770 H   0  0  0  0  0  0  0  0  0  0  0  0
   21.2250   16.1720    6.1960 S   0  0  0  0  0  6  0  0  0  0  0  0
   18.5200   15.7040    6.0020 C   0  0  0  0  0  0  0  0  0  0  0  0
   19.3863   17.5889    5.5826 H   0  0  0  0  0  0  0  0  0  0  0  0
   20.9760   15.3520    7.3680 O   0  0  0  0  0  0  0  0  0  0  0  0
   22.0200   17.3740    6.3330 O   0  0  0  0  0  0  0  0  0  0  0  0
   22.0720   15.2000    5.1100 N   0  0  0  0  0  0  0  0  0  0  0  0
   17.1980   16.4590    6.1800 C   0  0  0  0  0  0  0  0  0  0  0  0
   18.3385   14.8487    5.3346 H   0  0  0  0  0  0  0  0  0  0  0  0
   18.8450   15.4064    7.0099 H   0  0  0  0  0  0  0  0  0  0  0  0
   22.6555   14.5304    5.6315 H   0  0  0  0  0  0  0  0  0  0  0  0
   21.4050   14.6854    4.5175 H   0  0  0  0  0  0  0  0  0  0  0  0
   16.0090   15.7590    5.5410 C   0  0  0  0  0  0  0  0  0  0  0  0
   17.3017   17.4549    5.7245 H   0  0  0  0  0  0  0  0  0  0  0  0
   16.9992   16.5131    7.2605 H   0  0  0  0  0  0  0  0  0  0  0  0
   15.3467   15.3691    6.3280 H   0  0  0  0  0  0  0  0  0  0  0  0
   15.4544   16.4747    4.9164 H   0  0  0  0  0  0  0  0  0  0  0  0
   16.3657   14.9268    4.9164 H   0  0  0  0  0  0  0  0  0  0  0  0
  1  2  1  0
  2  3  2  0
  2  4  1  0
  1  5  1  0
  1  6  1  0
  1  7  1  0
  5  8  1  0
  5  9  1  0
  5 10  1  0
  8 11  1  0
  8 12  1  0
  8 13  1  0
 14 11  1  0
 15 11  1  0
 16 14  2  0
 14 17  1  0
 15 18  2  0
 19 15  1  0
 18 16  1  0
 20 18  1  0
 21 19  2  0
 19 22  1  0
 20 23  2  0
 20 24  1  0
 23 21  1  0
 21 25  1  0
 23 26  1  0
 27  4  1  0
 28  4  1  0
  4 29  1  6
 30 27  2  0
 31 27  2  0
 32 27  1  0
 33 28  1  0
 28 34  1  0
 28 35  1  0
 32 36  1  0
 32 37  1  0
 33 38  1  0
 33 39  1  0
 33 40  1  0
 38 41  1  0
 38 42  1  0
 38 43  1  0
M  CHG  1   1   1
M  END
$$$$

     RDKit          3D

 36 38  0  0  0  0  0  0  0  0999 V2000
   19.7050   15.2780    3.4920 N   0  0  0  0  0  4  0  0  0  0  0  0
   19.5830   17.0100    2.7820 C   0  0  0  0  0  0  0  0  0  0  0  0
   19.5440   17.7830    1.7750 O   0  0  0  0  0  0  0  0  0  0  0  0
   19.7570   17.6780    4.1710 C   0  0  0  0  0  0  0  0  0  0  0  0
   18.6840   14.2700    3.8990 C   0  0  0  0  0  0  0  0  0  0  0  0
   20.1286   15.6962    4.3325 H   0  0  0  0  0  0  0  0  0  0  0  0
   20.4366   14.8185    2.9312 H   0  0  0  0  0  0  0  0  0  0  0  0
   17.2800   14.8690    3.8850 C   0  0  0  0  0  0  0  0  0  0  0  0
   18.9134   13.9173    4.9154 H   0  0  0  0  0  0  0  0  0  0  0  0
   18.7137   13.4357    3.1827 H   0  0  0  0  0  0  0  0  0  0  0  0
   16.3070   13.8790    3.4770 N   0  0  0  0  0  0  0  0  0  0  0  0
   17.2542   15.7129    3.1799 H   0  0  0  0  0  0  0  0  0  0  0  0
   17.0314   15.2127    4.8999 H   0  0  0  0  0  0  0  0  0  0  0  0
   16.5850   12.7580    2.7500 C   0  0  0  0  0  0  0  0  0  0  0  0
   14.9510   13.9360    3.6870 C   0  0  0  0  0  0  0  0  0  0  0  0
   15.4890   12.1140    2.4300 N   0  0  0  0  0  0  0  0  0  0  0  0
   17.5986   12.4362    2.4687 H   0  0  0  0  0  0  0  0  0  0  0  0
   14.4640   12.8180    3.0110 C   0  0  0  0  0  0  0  0  0  0  0  0
   14.1150   14.8270    4.3720 C   0  0  0  0  0  0  0  0  0  0  0  0
   13.0860   12.5610    3.0000 C   0  0  0  0  0  0  0  0  0  0  0  0
   12.7420   14.5500    4.3520 C   0  0  0  0  0  0  0  0  0  0  0  0
   14.5178   15.7033    4.9009 H   0  0  0  0  0  0  0  0  0  0  0  0
   12.2330   13.4400    3.6770 C   0  0  0  0  0  0  0  0  0  0  0  0
   12.6830   11.6856    2.4696 H   0  0  0  0  0  0  0  0  0  0  0  0
   12.0499   15.2224    4.8801 H   0  0  0  0  0  0  0  0  0  0  0  0
   11.1489   13.2537    3.6770 H   0  0  0  0  0  0  0  0  0  0  0  0
   20.3050   16.7870    5.2480 C   0  0  0  0  0  0  0  0  0  0  0  0
   18.7719   18.0411    4.4991 H   0  0  0  0  0  0  0  0  0  0  0  0
   20.4985   18.4786    4.0324 H   0  0  0  0  0  0  0  0  0  0  0  0
   21.3980   16.8780    6.0800 C   0  0  0  0  0  0  0  0  0  0  0  0
   19.7010   15.6070    5.6060 N   0  0  0  0  0  0  0  0  0  0  0  0
   21.4700   15.7950    6.9250 N   0  0  0  0  0  0  0  0  0  0  0  0
   22.1195   17.7083    6.0703 H   0  0  0  0  0  0  0  0  0  0  0  0
   20.4340   15.0480    6.6070 C   0  0  0  0  0  0  0  0  0  0  0  0
   18.8443   15.2143    5.1903 H   0  0  0  0  0  0  0  0  0  0  0  0
   20.1908   14.0904    7.0905 H   0  0  0  0  0  0  0  0  0  0  0  0
  1  2  1  0
  2  3  2  0
  2  4  1  0
  1  5  1  0
  1  6  1  0
  1  7  1  0
  5  8  1  0
  5  9  1  0
  5 10  1  0
  8 11  1  0
  8 12  1  0
  8 13  1  0
 14 11  1  0
 15 11  1  0
 16 14  2  0
 14 17  1  0
 15 18  2  0
 19 15  1  0
 18 16  1  0
 20 18  1  0
 21 19  2  0
 19 22  1  0
 20 23  2  0
 20 24  1  0
 23 21  1  0
 21 25  1  0
 23 26  1  0
  4 27  1  0
  4 28  1  0
  4 29  1  0
 30 27  2  0
 31 27  1  0
 32 30  1  0
 30 33  1  0
 31 34  1  0
 31 35  1  0
 34 32  2  0
 34 36  1  0
M  CHG  1   1   1
M  END
$$$$

     RDKit          3D

 39 41  0  0  0  0  0  0  0  0999 V2000
   19.7050   15.2780    3.4920 N   0  0  0  0  0  4  0  0  0  0  0  0
   19.9080   15.2990    4.3850 C   0  0  0  0  0  0  0  0  0  0  0  0
   21.0750   15.5150    4.8230 O   0  0  0  0  0  0  0  0  0  0  0  0
   18.8380   15.0460    5.4570 C   0  0  0  0  0  0  0  0  0  0  0  0
   18.6840   14.2700    3.8990 C   0  0  0  0  0  0  0  0  0  0  0  0
   20.4366   14.8185    2.9312 H   0  0  0  0  0  0  0  0  0  0  0  0
   19.2549   16.0154    2.9312 H   0  0  0  0  0  0  0  0  0  0  0  0
   17.2800   14.8690    3.8850 C   0  0  0  0  0  0  0  0  0  0  0  0
   18.9134   13.9173    4.9154 H   0  0  0  0  0  0  0  0  0  0  0  0
   18.7137   13.4357    3.1827 H   0  0  0  0  0  0  0  0  0  0  0  0
   16.3070   13.8790    3.4770 N   0  0  0  0  0  0  0  0  0  0  0  0
   17.2542   15.7129    3.1799 H   0  0  0  0  0  0  0  0  0  0  0  0
   17.0314   15.2127    4.8999 H   0  0  0  0  0  0  0  0  0  0  0  0
   16.5850   12.7580    2.7500 C   0  0  0  0  0  0  0  0  0  0  0  0
   14.9510   13.9360    3.6870 C   0  0  0  0  0  0  0  0  0  0  0  0
   15.4890   12.1140    2.4300 N   0  0  0  0  0  0  0  0  0  0  0  0
   17.5986   12.4362    2.4687 H   0  0  0  0  0  0  0  0  0  0  0  0
   14.4640   12.8180    3.0110 C   0  0  0  0  0  0  0  0  0  0  0  0
   14.1150   14.8270    4.3720 C   0  0  0  0  0  0  0  0  0  0  0  0
   13.0860   12.5610    3.0000 C   0  0  0  0  0  0  0  0  0  0  0  0
   12.7420   14.5500    4.3520 C   0  0  0  0  0  0  0  0  0  0  0  0
   14.5178   15.7033    4.9009 H   0  0  0  0  0  0  0  0  0  0  0  0
   12.2330   13.4400    3.6770 C   0  0  0  0  0  0  0  0  0  0  0  0
   12.6830   11.6856    2.4696 H   0  0  0  0  0  0  0  0  0  0  0  0
   12.0499   15.2224    4.8801 H   0  0  0  0  0  0  0  0  0  0  0  0
   11.1489   13.2537    3.6770 H   0  0  0  0  0  0  0  0  0  0  0  0
   17.7490   16.1020    5.6480 C   0  0  0  0  0  0  0  0  0  0  0  0
   19.3590   14.9358    6.4195 H   0  0  0  0  0  0  0  0  0  0  0  0
   18.2981   14.1561    5.1013 H   0  0  0  0  0  0  0  0  0  0  0  0
   18.2760   17.5130    5.5930 C   0  0  0  0  0  0  0  0  0  0  0  0
   16.3600   15.8560    5.0960 C   0  0  0  0  0  0  0  0  0  0  0  0
   16.5910   15.8260    6.5830 C   0  0  0  0  0  0  0  0  0  0  0  0
   18.4174   17.8917    6.6160 H   0  0  0  0  0  0  0  0  0  0  0  0
   19.2390   17.5243    5.0614 H   0  0  0  0  0  0  0  0  0  0  0  0
   17.5562   18.1528    5.0614 H   0  0  0  0  0  0  0  0  0  0  0  0
   15.7935   16.6838    4.6445 H   0  0  0  0  0  0  0  0  0  0  0  0
   15.9276   15.1593    4.3628 H   0  0  0  0  0  0  0  0  0  0  0  0
   16.1929   16.6318    7.2172 H   0  0  0  0  0  0  0  0  0  0  0  0
   16.3966   15.0980    7.3844 H   0  0  0  0  0  0  0  0  0  0  0  0
  1  2  1  0
  2  3  2  0
  2  4  1  0
  1  5  1  0
  1  6  1  0
  1  7  1  0
  5  8  1  0
  5  9  1  0
  5 10  1  0
  8 11  1  0
  8 12  1  0
  8 13  1  0
 14 11  1  0
 15 11  1  0
 16 14  2  0
 14 17  1  0
 15 18  2  0
 19 15  1  0
 18 16  1  0
 20 18  1  0
 21 19  2  0
 19 22  1  0
 20 23  2  0
 20 24  1  0
 23 21  1  0
 21 25  1  0
 23 26  1  0
 27  4  1  0
  4 28  1  0
  4 29  1  0
 30 27  1  0
 31 27  1  0
 32 27  1  0
 30 33  1  0
 30 34  1  0
 30 35  1  0
 32 31  1  0
 31 36  1  0
 31 37  1  0
 32 38  1  0
 32 39  1  0
M  CHG  1   1   1
M  END
$$$$

     RDKit          3D

 36 37  0  0  0  0  0  0  0  0999 V2000
   19.7050   15.2780    3.4920 N   0  0  0  0  0  4  0  0  0  0  0  0
   19.5790   17.0590    2.6260 C   0  0  0  0  0  0  0  0  0  0  0  0
   19.5650   17.6870    1.5280 O   0  0  0  0  0  0  0  0  0  0  0  0
   19.9350   17.8940    3.8570 C   0  0  0  0  0  0  0  0  0  0  0  0
   18.6840   14.2700    3.8990 C   0  0  0  0  0  0  0  0  0  0  0  0
   20.1286   15.6962    4.3325 H   0  0  0  0  0  0  0  0  0  0  0  0
   20.4366   14.8185    2.9312 H   0  0  0  0  0  0  0  0  0  0  0  0
   17.2800   14.8690    3.8850 C   0  0  0  0  0  0  0  0  0  0  0  0
   18.9134   13.9173    4.9154 H   0  0  0  0  0  0  0  0  0  0  0  0
   18.7137   13.4357    3.1827 H   0  0  0  0  0  0  0  0  0  0  0  0
   16.3070   13.8790    3.4770 N   0  0  0  0  0  0  0  0  0  0  0  0
   17.2542   15.7129    3.1799 H   0  0  0  0  0  0  0  0  0  0  0  0
   17.0314   15.2127    4.8999 H   0  0  0  0  0  0  0  0  0  0  0  0
   16.5850   12.7580    2.7500 C   0  0  0  0  0  0  0  0  0  0  0  0
   14.9510   13.9360    3.6870 C   0  0  0  0  0  0  0  0  0  0  0  0
   15.4890   12.1140    2.4300 N   0  0  0  0  0  0  0  0  0  0  0  0
   17.5986   12.4362    2.4687 H   0  0  0  0  0  0  0  0  0  0  0  0
   14.4640   12.8180    3.0110 C   0  0  0  0  0  0  0  0  0  0  0  0
   14.1150   14.8270    4.3720 C   0  0  0  0  0  0  0  0  0  0  0  0
   13.0860   12.5610    3.0000 C   0  0  0  0  0  0  0  0  0  0  0  0
   12.7420   14.5500    4.3520 C   0  0  0  0  0  0  0  0  0  0  0  0
   14.5178   15.7033    4.9009 H   0  0  0  0  0  0  0  0  0  0  0  0
   12.2330   13.4400    3.6770 C   0  0  0  0  0  0  0  0  0  0  0  0
   12.6830   11.6856    2.4696 H   0  0  0  0  0  0  0  0  0  0  0  0
   12.0499   15.2224    4.8801 H   0  0  0  0  0  0  0  0  0  0  0  0
   11.1489   13.2537    3.6770 H   0  0  0  0  0  0  0  0  0  0  0  0
   19.4980   16.9020    5.3090 S   0  0  0  0  0  0  0  0  0  0  0  0
   19.3635   18.8339    3.8549 H   0  0  0  0  0  0  0  0  0  0  0  0
   21.0045   18.1512    3.8628 H   0  0  0  0  0  0  0  0  0  0  0  0
   21.3520   16.1670    5.9380 S   0  0  0  0  0  6  0  0  0  0  0  0
   21.8830   15.3080    4.8960 O   0  0  0  0  0  0  0  0  0  0  0  0
   21.2740   15.7560    7.3240 O   0  0  0  0  0  0  0  0  0  0  0  0
   22.3930   17.6030    5.9370 C   0  0  0  0  0  0  0  0  0  0  0  0
   22.6085   17.9003    6.9739 H   0  0  0  0  0  0  0  0  0  0  0  0
   23.3352   17.3725    5.4182 H   0  0  0  0  0  0  0  0  0  0  0  0
   21.8809   18.4268    5.4182 H   0  0  0  0  0  0  0  0  0  0  0  0
  1  2  1  0
  2  3  2  0
  2  4  1  0
  1  5  1  0
  1  6  1  0
  1  7  1  0
  5  8  1  0
  5  9  1  0
  5 10  1  0
  8 11  1  0
  8 12  1  0
  8 13  1  0
 14 11  1  0
 15 11  1  0
 16 14  2  0
 14 17  1  0
 15 18  2  0
 19 15  1  0
 18 16  1  0
 20 18  1  0
 21 19  2  0
 19 22  1  0
 20 23  2  0
 20 24  1  0
 23 21  1  0
 21 25  1  0
 23 26  1  0
  4 27  1  0
  4 28  1  0
  4 29  1  0
 30 27  1  0
 31 30  2  0
 32 30  2  0
 33 30  1  0
 33 34  1  0
 33 35  1  0
 33 36  1  0
M  CHG  1   1   1
M  END
$$$$

     RDKit          3D

 44 46  0  0  0  0  0  0  0  0999 V2000
   19.7050   15.2780    3.4920 N   0  0  0  0  0  4  0  0  0  0  0  0
   19.7920   15.1710    4.8400 C   0  0  0  0  0  0  0  0  0  0  0  0
   19.7840   14.3640    5.8110 O   0  0  0  0  0  0  0  0  0  0  0  0
   19.6620   16.6570    5.2090 C   0  0  0  0  0  0  0  0  0  0  0  0
   18.6840   14.2700    3.8990 C   0  0  0  0  0  0  0  0  0  0  0  0
   20.4366   14.8185    2.9312 H   0  0  0  0  0  0  0  0  0  0  0  0
   19.2549   16.0154    2.9312 H   0  0  0  0  0  0  0  0  0  0  0  0
   17.2800   14.8690    3.8850 C   0  0  0  0  0  0  0  0  0  0  0  0
   18.9134   13.9173    4.9154 H   0  0  0  0  0  0  0  0  0  0  0  0
   18.7137   13.4357    3.1827 H   0  0  0  0  0  0  0  0  0  0  0  0
   16.3070   13.8790    3.4770 N   0  0  0  0  0  0  0  0  0  0  0  0
   17.2542   15.7129    3.1799 H   0  0  0  0  0  0  0  0  0  0  0  0
   17.0314   15.2127    4.8999 H   0  0  0  0  0  0  0  0  0  0  0  0
   16.5850   12.7580    2.7500 C   0  0  0  0  0  0  0  0  0  0  0  0
   14.9510   13.9360    3.6870 C   0  0  0  0  0  0  0  0  0  0  0  0
   15.4890   12.1140    2.4300 N   0  0  0  0  0  0  0  0  0  0  0  0
   17.5986   12.4362    2.4687 H   0  0  0  0  0  0  0  0  0  0  0  0
   14.4640   12.8180    3.0110 C   0  0  0  0  0  0  0  0  0  0  0  0
   14.1150   14.8270    4.3720 C   0  0  0  0  0  0  0  0  0  0  0  0
   13.0860   12.5610    3.0000 C   0  0  0  0  0  0  0  0  0  0  0  0
   12.7420   14.5500    4.3520 C   0  0  0  0  0  0  0  0  0  0  0  0
   14.5178   15.7033    4.9009 H   0  0  0  0  0  0  0  0  0  0  0  0
   12.2330   13.4400    3.6770 C   0  0  0  0  0  0  0  0  0  0  0  0
   12.6830   11.6856    2.4696 H   0  0  0  0  0  0  0  0  0  0  0  0
   12.0499   15.2224    4.8801 H   0  0  0  0  0  0  0  0  0  0  0  0
   11.1489   13.2537    3.6770 H   0  0  0  0  0  0  0  0  0  0  0  0
   20.6980   17.5200    5.4770 C   0  0  0  0  0  0  0  0  0  0  0  0
   18.5170   17.3840    5.3610 N   0  0  0  0  0  0  0  0  0  0  0  0
   20.0850   18.7330    5.8210 C   0  0  0  0  0  0  0  0  0  0  0  0
   22.0970   17.2670    5.4230 N   0  0  0  0  0  4  0  0  0  0  0  0
   18.7500   18.6670    5.7570 N   0  0  0  0  0  0  0  0  0  0  0  0
   17.1430   16.9390    5.2090 C   0  0  0  0  0  0  0  0  0  0  0  0
   20.6394   19.6377    6.1111 H   0  0  0  0  0  0  0  0  0  0  0  0
   22.6940   17.6380    4.4020 O   0  0  0  0  0  0  0  0  0  0  0  0
   22.6260   16.8710    6.4730 O   0  0  0  0  0  1  0  0  0  0  0  0
   16.6490   16.0600    6.3580 C   0  0  0  0  0  0  0  0  0  0  0  0
   16.4957   17.8263    5.1480 H   0  0  0  0  0  0  0  0  0  0  0  0
   17.1036   16.3259    4.2965 H   0  0  0  0  0  0  0  0  0  0  0  0
   15.4470   15.2050    5.9820 C   0  0  0  0  0  0  0  0  0  0  0  0
   17.4687   15.3948    6.6672 H   0  0  0  0  0  0  0  0  0  0  0  0
   16.3332   16.7302    7.1711 H   0  0  0  0  0  0  0  0  0  0  0  0
   14.9487   14.8506    6.8964 H   0  0  0  0  0  0  0  0  0  0  0  0
   14.7412   15.8052    5.3890 H   0  0  0  0  0  0  0  0  0  0  0  0
   15.7824   14.3414    5.3890 H   0  0  0  0  0  0  0  0  0  0  0  0
  1  2  1  0
  2  3  2  0
  2  4  1  0
  1  5  1  0
  1  6  1  0
  1  7  1  0
  5  8  1  0
  5  9  1  0
  5 10  1  0
  8 11  1  0
  8 12  1  0
  8 13  1  0
 14 11  1  0
 15 11  1  0
 16 14  2  0
 14 17  1  0
 15 18  2  0
 19 15  1  0
 18 16  1  0
 20 18  1  0
 21 19  2  0
 19 22  1  0
 20 23  2  0
 20 24  1  0
 23 21  1  0
 21 25  1  0
 23 26  1  0
 27  4  2  0
 28  4  1  0
 29 27  1  0
 30 27  1  0
 28 31  1  0
 32 28  1  0
 31 29  2  0
 29 33  1  0
 34 30  2  0
 35 30  1  0
 36 32  1  0
 32 37  1  0
 32 38  1  0
 39 36  1  0
 36 40  1  0
 36 41  1  0
 39 42  1  0
 39 43  1  0
 39 44  1  0
M  CHG  3   1   1  30   1  35  -1
M  END
$$$$

     RDKit          3D

 39 40  0  0  0  0  0  0  0  0999 V2000
   19.8280   15.3890    3.8400 N   0  0  0  0  0  4  0  0  0  0  0  0
   18.9800   14.8700    3.9880 C   0  0  0  0  0  0  0  0  0  0  0  0
   19.5480   14.4870    5.0600 O   0  0  0  0  0  0  0  0  0  0  0  0
   17.4900   14.5130    3.8500 C   0  0  0  0  0  0  0  0  0  0  0  0
   19.6180   16.6380    3.0230 C   0  0  0  0  0  0  0  0  0  0  0  0
   20.9470   15.4840    4.8260 C   0  0  0  0  0  0  0  0  0  0  0  0
   20.0789   14.6407    3.1782 H   0  0  0  0  0  0  0  0  0  0  0  0
   19.3230   17.7880    3.9770 C   0  0  1  0  0  0  0  0  0  0  0  0
   18.7695   16.4961    2.3375 H   0  0  0  0  0  0  0  0  0  0  0  0
   20.5172   16.8587    2.4292 H   0  0  0  0  0  0  0  0  0  0  0  0
   20.7210   16.6710    5.7490 C   0  0  0  0  0  0  0  0  0  0  0  0
   20.9878   14.5605    5.4222 H   0  0  0  0  0  0  0  0  0  0  0  0
   21.8960   15.6191    4.2864 H   0  0  0  0  0  0  0  0  0  0  0  0
   18.1960   17.4120    4.6640 F   0  0  0  0  0  0  0  0  0  0  0  0
   20.4600   17.9750    4.9880 C   0  0  1  0  0  0  0  0  0  0  0  0
   19.2043   18.7305    3.4224 H   0  0  0  0  0  0  0  0  0  0  0  0
   19.8521   16.4579    6.3890 H   0  0  0  0  0  0  0  0  0  0  0  0
   21.6388   16.8105    6.3391 H   0  0  0  0  0  0  0  0  0  0  0  0
   21.7290   18.5260    4.3390 C   0  0  0  0  0  0  0  0  0  0  0  0
   20.0630   18.9080    5.9020 F   0  0  0  0  0  0  0  0  0  0  0  0
   22.4375   18.8336    5.1222 H   0  0  0  0  0  0  0  0  0  0  0  0
   22.1892   17.7467    3.7138 H   0  0  0  0  0  0  0  0  0  0  0  0
   21.4738   19.3943    3.7138 H   0  0  0  0  0  0  0  0  0  0  0  0
   16.4320   15.2020    4.3870 N   0  0  0  0  0  0  0  0  0  0  0  0
   17.1230   13.4590    3.1580 N   0  0  0  0  0  0  0  0  0  0  0  0
   15.3020   14.5500    3.9720 C   0  0  0  0  0  0  0  0  0  0  0  0
   16.4400   16.4270    5.1590 C   0  0  0  0  0  0  0  0  0  0  0  0
   15.7530   13.4570    3.2380 N   0  0  0  0  0  0  0  0  0  0  0  0
   14.1400   14.8630    4.1880 O   0  0  0  0  0  0  0  0  0  0  0  0
   16.7990   16.1750    6.6140 C   0  0  0  0  0  0  0  0  0  0  0  0
   17.1784   17.1169    4.7244 H   0  0  0  0  0  0  0  0  0  0  0  0
   15.4286   16.8583    5.1262 H   0  0  0  0  0  0  0  0  0  0  0  0
   14.9510   12.4940    2.5410 C   0  0  0  0  0  0  0  0  0  0  0  0
   16.0729   16.6847    7.2644 H   0  0  0  0  0  0  0  0  0  0  0  0
   16.7760   15.0938    6.8154 H   0  0  0  0  0  0  0  0  0  0  0  0
   17.8080   16.5641    6.8154 H   0  0  0  0  0  0  0  0  0  0  0  0
   14.4234   11.8604    3.2691 H   0  0  0  0  0  0  0  0  0  0  0  0
   14.2171   13.0162    1.9096 H   0  0  0  0  0  0  0  0  0  0  0  0
   15.5974   11.8667    1.9096 H   0  0  0  0  0  0  0  0  0  0  0  0
  1  2  1  0
  2  3  2  0
  2  4  1  0
  1  5  1  0
  6  1  1  0
  1  7  1  0
  5  8  1  0
  5  9  1  0
  5 10  1  0
 11  6  1  0
  6 12  1  0
  6 13  1  0
  8 14  1  0
 15  8  1  0
  8 16  1  6
 15 11  1  0
 11 17  1  0
 11 18  1  0
 19 15  1  0
 15 20  1  1
 19 21  1  0
 19 22  1  0
 19 23  1  0
  4 24  1  0
 25  4  2  0
 26 24  1  0
 27 24  1  0
 28 25  1  0
 26 28  1  0
 29 26  2  0
 27 30  1  0
 27 31  1  0
 27 32  1  0
 33 28  1  0
 30 34  1  0
 30 35  1  0
 30 36  1  0
 33 37  1  0
 33 38  1  0
 33 39  1  0
M  CHG  1   1   1
M  END
$$$$

     RDKit          3D

 39 41  0  0  0  0  0  0  0  0999 V2000
   19.8280   15.3890    3.8400 N   0  0  0  0  0  4  0  0  0  0  0  0
   19.0480   15.0890    4.0010 C   0  0  0  0  0  0  0  0  0  0  0  0
   19.6550   14.7440    5.0650 O   0  0  0  0  0  0  0  0  0  0  0  0
   17.5040   14.6990    3.8900 C   0  0  0  0  0  0  0  0  0  0  0  0
   19.6180   16.6380    3.0230 C   0  0  0  0  0  0  0  0  0  0  0  0
   20.9470   15.4840    4.8260 C   0  0  0  0  0  0  0  0  0  0  0  0
   20.0789   14.6407    3.1782 H   0  0  0  0  0  0  0  0  0  0  0  0
   19.3230   17.7880    3.9770 C   0  0  1  0  0  0  0  0  0  0  0  0
   18.7695   16.4961    2.3375 H   0  0  0  0  0  0  0  0  0  0  0  0
   20.5172   16.8587    2.4292 H   0  0  0  0  0  0  0  0  0  0  0  0
   20.7210   16.6710    5.7490 C   0  0  0  0  0  0  0  0  0  0  0  0
   20.9878   14.5605    5.4222 H   0  0  0  0  0  0  0  0  0  0  0  0
   21.8960   15.6191    4.2864 H   0  0  0  0  0  0  0  0  0  0  0  0
   18.1960   17.4120    4.6640 F   0  0  0  0  0  0  0  0  0  0  0  0
   20.4600   17.9750    4.9880 C   0  0  1  0  0  0  0  0  0  0  0  0
   19.2043   18.7305    3.4224 H   0  0  0  0  0  0  0  0  0  0  0  0
   19.8521   16.4579    6.3890 H   0  0  0  0  0  0  0  0  0  0  0  0
   21.6388   16.8105    6.3391 H   0  0  0  0  0  0  0  0  0  0  0  0
   21.7290   18.5260    4.3390 C   0  0  0  0  0  0  0  0  0  0  0  0
   20.0630   18.9080    5.9020 F   0  0  0  0  0  0  0  0  0  0  0  0
   22.4375   18.8336    5.1222 H   0  0  0  0  0  0  0  0  0  0  0  0
   22.1892   17.7467    3.7138 H   0  0  0  0  0  0  0  0  0  0  0  0
   21.4738   19.3943    3.7138 H   0  0  0  0  0  0  0  0  0  0  0  0
   16.9800   13.5960    3.2040 N   0  0  0  0  0  0  0  0  0  0  0  0
   16.4760   15.4150    4.4660 C   0  0  0  0  0  0  0  0  0  0  0  0
   15.6780   13.6650    3.3750 C   0  0  0  0  0  0  0  0  0  0  0  0
   15.3210   14.7640    4.1430 N   0  0  0  0  0  0  0  0  0  0  0  0
   16.5580   16.5310    5.2040 F   0  0  0  0  0  0  0  0  0  0  0  0
   14.6250   12.8240    2.9160 C   0  0  0  0  0  0  0  0  0  0  0  0
   14.0040   15.0740    4.4770 C   0  0  0  0  0  0  0  0  0  0  0  0
   13.3400   13.1070    3.2290 C   0  0  0  0  0  0  0  0  0  0  0  0
   14.8575   11.9400    2.3040 H   0  0  0  0  0  0  0  0  0  0  0  0
   13.0120   14.2790    4.0430 C   0  0  0  0  0  0  0  0  0  0  0  0
   13.7793   15.9598    5.0892 H   0  0  0  0  0  0  0  0  0  0  0  0
   12.1930   12.2570    2.7710 C   0  0  0  0  0  0  0  0  0  0  0  0
   11.9658   14.5058    4.2961 H   0  0  0  0  0  0  0  0  0  0  0  0
   11.6580   11.8605    3.6465 H   0  0  0  0  0  0  0  0  0  0  0  0
   11.5050   12.8650    2.1652 H   0  0  0  0  0  0  0  0  0  0  0  0
   12.5745   11.4218    2.1652 H   0  0  0  0  0  0  0  0  0  0  0  0
  1  2  1  0
  2  3  2  0
  2  4  1  0
  1  5  1  0
  6  1  1  0
  1  7  1  0
  5  8  1  0
  5  9  1  0
  5 10  1  0
 11  6  1  0
  6 12  1  0
  6 13  1  0
  8 14  1  0
 15  8  1  0
  8 16  1  6
 15 11  1  0
 11 17  1  0
 11 18  1  0
 19 15  1  0
 15 20  1  1
 19 21  1  0
 19 22  1  0
 19 23  1  0
  4 24  1  0
 25  4  2  0
 24 26  2  0
 25 27  1  0
 28 25  1  0
 26 27  1  0
 29 26  1  0
 27 30  1  0
 29 31  2  0
 29 32  1  0
 30 33  2  0
 30 34  1  0
 31 35  1  0
 33 31  1  0
 33 36  1  0
 35 37  1  0
 35 38  1  0
 35 39  1  0
M  CHG  1   1   1
M  END
$$$$

     RDKit          3D

 41 44  0  0  0  0  0  0  0  0999 V2000
   17.9250   14.3610    4.0380 N   0  0  0  0  0  4  0  0  0  0  0  0
   18.5050   15.0770    3.8240 C   0  0  0  0  0  0  0  0  0  0  0  0
   19.2050   14.2470    3.1780 O   0  0  0  0  0  0  0  0  0  0  0  0
   19.1220   15.6490    5.1080 C   0  0  1  0  0  0  0  0  0  0  0  0
   17.3750   15.7260    4.3310 C   0  0  0  0  0  0  0  0  0  0  0  0
   17.0650   13.6110    3.0750 C   0  0  0  0  0  0  0  0  0  0  0  0
   17.9537   13.8314    4.9209 H   0  0  0  0  0  0  0  0  0  0  0  0
   15.9920   15.6460    4.9920 C   0  0  1  0  0  0  0  0  0  0  0  0
   17.2886   16.2863    3.3884 H   0  0  0  0  0  0  0  0  0  0  0  0
   18.0608   16.2321    5.0264 H   0  0  0  0  0  0  0  0  0  0  0  0
   15.6080   13.6480    3.4460 C   0  0  0  0  0  0  0  0  0  0  0  0
   17.1850   14.0557    2.0761 H   0  0  0  0  0  0  0  0  0  0  0  0
   17.3856   12.5589    3.0936 H   0  0  0  0  0  0  0  0  0  0  0  0
   15.4660   16.9020    4.9890 F   0  0  0  0  0  0  0  0  0  0  0  0
   15.0920   14.6360    4.3130 C   0  0  0  0  0  0  0  0  0  0  0  0
   16.0858   15.2853    6.0269 H   0  0  0  0  0  0  0  0  0  0  0  0
   14.7310   12.7190    2.8650 C   0  0  0  0  0  0  0  0  0  0  0  0
   13.7180   14.6590    4.5950 C   0  0  0  0  0  0  0  0  0  0  0  0
   13.3670   12.7560    3.1530 C   0  0  0  0  0  0  0  0  0  0  0  0
   15.1227   11.9555    2.1768 H   0  0  0  0  0  0  0  0  0  0  0  0
   12.8620   13.7240    4.0160 C   0  0  0  0  0  0  0  0  0  0  0  0
   13.3134   15.4204    5.2780 H   0  0  0  0  0  0  0  0  0  0  0  0
   12.6893   12.0190    2.6974 H   0  0  0  0  0  0  0  0  0  0  0  0
   11.7857   13.7511    4.2414 H   0  0  0  0  0  0  0  0  0  0  0  0
   19.7410   14.6170    6.0710 C   0  0  0  0  0  0  0  0  0  0  0  0
   20.3080   16.5620    4.8920 C   0  0  0  0  0  0  0  0  0  0  0  0
   18.2290   16.1484    5.5118 H   0  0  0  0  0  0  0  0  0  0  0  0
   20.8000   15.3610    6.8920 C   0  0  0  0  0  0  0  0  0  0  0  0
   18.9664   14.2057    6.7350 H   0  0  0  0  0  0  0  0  0  0  0  0
   20.1870   13.7772    5.5179 H   0  0  0  0  0  0  0  0  0  0  0  0
   21.2510   16.3990    5.9160 C   0  0  0  0  0  0  0  0  0  0  0  0
   20.4980   17.5140    3.8990 C   0  0  0  0  0  0  0  0  0  0  0  0
   20.3638   15.8176    7.7927 H   0  0  0  0  0  0  0  0  0  0  0  0
   21.6081   14.7190    7.2725 H   0  0  0  0  0  0  0  0  0  0  0  0
   22.4010   17.1720    5.9620 C   0  0  0  0  0  0  0  0  0  0  0  0
   21.6590   18.2890    3.9290 C   0  0  0  0  0  0  0  0  0  0  0  0
   19.7494   17.6546    3.1053 H   0  0  0  0  0  0  0  0  0  0  0  0
   22.5930   18.1110    4.9530 C   0  0  0  0  0  0  0  0  0  0  0  0
   23.1375   17.0472    6.7695 H   0  0  0  0  0  0  0  0  0  0  0  0
   21.8386   19.0403    3.1459 H   0  0  0  0  0  0  0  0  0  0  0  0
   23.6980   18.8720    4.9710 F   0  0  0  0  0  0  0  0  0  0  0  0
  1  2  1  0
  2  3  2  0
  2  4  1  0
  1  5  1  0
  6  1  1  0
  1  7  1  0
  5  8  1  0
  5  9  1  0
  5 10  1  0
 11  6  1  0
  6 12  1  0
  6 13  1  0
  8 14  1  0
 15  8  1  0
  8 16  1  1
 15 11  2  0
 17 11  1  0
 18 15  1  0
 17 19  2  0
 17 20  1  0
 21 18  2  0
 18 22  1  0
 19 21  1  0
 19 23  1  0
 21 24  1  0
 25  4  1  0
 26  4  1  0
  4 27  1  1
 28 25  1  0
 25 29  1  0
 25 30  1  0
 26 31  2  0
 32 26  1  0
 31 28  1  0
 28 33  1  0
 28 34  1  0
 35 31  1  0
 36 32  2  0
 32 37  1  0
 35 38  2  0
 35 39  1  0
 38 36  1  0
 36 40  1  0
 41 38  1  0
M  CHG  1   1   1
M  END
$$$$

     RDKit          3D

 37 40  0  0  0  0  0  0  0  0999 V2000
   17.9250   14.3610    4.0380 N   0  0  0  0  0  4  0  0  0  0  0  0
   18.5070   14.9400    3.6290 C   0  0  0  0  0  0  0  0  0  0  0  0
   18.9090   13.7860    3.2700 O   0  0  0  0  0  0  0  0  0  0  0  0
   19.5760   15.9820    3.8600 C   0  0  0  0  0  0  0  0  0  0  0  0
   17.3750   15.7260    4.3310 C   0  0  0  0  0  0  0  0  0  0  0  0
   17.0650   13.6110    3.0750 C   0  0  0  0  0  0  0  0  0  0  0  0
   17.9537   13.8314    4.9209 H   0  0  0  0  0  0  0  0  0  0  0  0
   15.9920   15.6460    4.9920 C   0  0  1  0  0  0  0  0  0  0  0  0
   17.2886   16.2863    3.3884 H   0  0  0  0  0  0  0  0  0  0  0  0
   18.0608   16.2321    5.0264 H   0  0  0  0  0  0  0  0  0  0  0  0
   15.6080   13.6480    3.4460 C   0  0  0  0  0  0  0  0  0  0  0  0
   17.1850   14.0557    2.0761 H   0  0  0  0  0  0  0  0  0  0  0  0
   17.3856   12.5589    3.0936 H   0  0  0  0  0  0  0  0  0  0  0  0
   15.4660   16.9020    4.9890 F   0  0  0  0  0  0  0  0  0  0  0  0
   15.0920   14.6360    4.3130 C   0  0  0  0  0  0  0  0  0  0  0  0
   16.0858   15.2853    6.0269 H   0  0  0  0  0  0  0  0  0  0  0  0
   14.7310   12.7190    2.8650 C   0  0  0  0  0  0  0  0  0  0  0  0
   13.7180   14.6590    4.5950 C   0  0  0  0  0  0  0  0  0  0  0  0
   13.3670   12.7560    3.1530 C   0  0  0  0  0  0  0  0  0  0  0  0
   15.1227   11.9555    2.1768 H   0  0  0  0  0  0  0  0  0  0  0  0
   12.8620   13.7240    4.0160 C   0  0  0  0  0  0  0  0  0  0  0  0
   13.3134   15.4204    5.2780 H   0  0  0  0  0  0  0  0  0  0  0  0
   12.6893   12.0190    2.6974 H   0  0  0  0  0  0  0  0  0  0  0  0
   11.7857   13.7511    4.2414 H   0  0  0  0  0  0  0  0  0  0  0  0
   20.4100   15.8720    4.9980 C   0  0  0  0  0  0  0  0  0  0  0  0
   19.7720   17.0580    2.9840 C   0  0  0  0  0  0  0  0  0  0  0  0
   21.3870   16.8450    5.1880 C   0  0  0  0  0  0  0  0  0  0  0  0
   20.2898   15.0428    5.7107 H   0  0  0  0  0  0  0  0  0  0  0  0
   20.7670   18.0270    3.1980 C   0  0  0  0  0  0  0  0  0  0  0  0
   19.0180   17.2230    1.8880 F   0  0  0  0  0  0  0  0  0  0  0  0
   22.2740   16.8960    6.2210 O   0  0  0  0  0  0  0  0  0  0  0  0
   21.5920   17.9160    4.3270 C   0  0  0  0  0  0  0  0  0  0  0  0
   20.8969   18.8597    2.4911 H   0  0  0  0  0  0  0  0  0  0  0  0
   23.0460   17.9980    6.0250 C   0  0  0  0  0  0  0  0  0  0  0  0
   22.6690   18.6580    4.8780 C   0  0  0  0  0  0  0  0  0  0  0  0
   23.8602   18.3180    6.6919 H   0  0  0  0  0  0  0  0  0  0  0  0
   23.1137   19.5774    4.4696 H   0  0  0  0  0  0  0  0  0  0  0  0
  1  2  1  0
  2  3  2  0
  2  4  1  0
  1  5  1  0
  6  1  1  0
  1  7  1  0
  5  8  1  0
  5  9  1  0
  5 10  1  0
 11  6  1  0
  6 12  1  0
  6 13  1  0
  8 14  1  0
 15  8  1  0
  8 16  1  1
 15 11  2  0
 17 11  1  0
 18 15  1  0
 17 19  2  0
 17 20  1  0
 21 18  2  0
 18 22  1  0
 19 21  1  0
 19 23  1  0
 21 24  1  0
 25  4  2  0
 26  4  1  0
 27 25  1  0
 25 28  1  0
 26 29  2  0
 30 26  1  0
 31 27  1  0
 32 27  2  0
 29 32  1  0
 29 33  1  0
 34 31  1  0
 32 35  1  0
 35 34  2  0
 34 36  1  0
 35 37  1  0
M  CHG  1   1   1
M  END
$$$$

     RDKit          3D

 38 39  0  0  0  0  0  0  0  0999 V2000
   17.9250   14.3610    4.0380 N   0  0  0  0  0  4  0  0  0  0  0  0
   18.7120   15.5750    3.8970 C   0  0  0  0  0  0  0  0  0  0  0  0
   19.8810   15.1480    3.6920 O   0  0  0  0  0  0  0  0  0  0  0  0
   18.5910   16.9200    4.6210 C   0  0  0  0  0  0  0  0  0  0  0  0
   17.3750   15.7260    4.3310 C   0  0  0  0  0  0  0  0  0  0  0  0
   17.0650   13.6110    3.0750 C   0  0  0  0  0  0  0  0  0  0  0  0
   17.9537   13.8314    4.9209 H   0  0  0  0  0  0  0  0  0  0  0  0
   15.9920   15.6460    4.9920 C   0  0  1  0  0  0  0  0  0  0  0  0
   17.2886   16.2863    3.3884 H   0  0  0  0  0  0  0  0  0  0  0  0
   18.0608   16.2321    5.0264 H   0  0  0  0  0  0  0  0  0  0  0  0
   15.6080   13.6480    3.4460 C   0  0  0  0  0  0  0  0  0  0  0  0
   17.1850   14.0557    2.0761 H   0  0  0  0  0  0  0  0  0  0  0  0
   17.3856   12.5589    3.0936 H   0  0  0  0  0  0  0  0  0  0  0  0
   15.4660   16.9020    4.9890 F   0  0  0  0  0  0  0  0  0  0  0  0
   15.0920   14.6360    4.3130 C   0  0  0  0  0  0  0  0  0  0  0  0
   16.0858   15.2853    6.0269 H   0  0  0  0  0  0  0  0  0  0  0  0
   14.7310   12.7190    2.8650 C   0  0  0  0  0  0  0  0  0  0  0  0
   13.7180   14.6590    4.5950 C   0  0  0  0  0  0  0  0  0  0  0  0
   13.3670   12.7560    3.1530 C   0  0  0  0  0  0  0  0  0  0  0  0
   15.1227   11.9555    2.1768 H   0  0  0  0  0  0  0  0  0  0  0  0
   12.8620   13.7240    4.0160 C   0  0  0  0  0  0  0  0  0  0  0  0
   13.3134   15.4204    5.2780 H   0  0  0  0  0  0  0  0  0  0  0  0
   12.6893   12.0190    2.6974 H   0  0  0  0  0  0  0  0  0  0  0  0
   11.7857   13.7511    4.2414 H   0  0  0  0  0  0  0  0  0  0  0  0
   19.6390   17.9550    4.2260 C   0  0  0  0  0  0  0  0  0  0  0  0
   18.6817   16.7363    5.7018 H   0  0  0  0  0  0  0  0  0  0  0  0
   17.6163   17.3405    4.3327 H   0  0  0  0  0  0  0  0  0  0  0  0
   20.5700   18.2870    5.3920 C   0  0  0  0  0  0  0  0  0  0  0  0
   19.1287   18.8746    3.9038 H   0  0  0  0  0  0  0  0  0  0  0  0
   20.2459   17.5357    3.4100 H   0  0  0  0  0  0  0  0  0  0  0  0
   21.9520   17.6770    5.1780 C   0  0  0  0  0  0  0  0  0  0  0  0
   20.1397   17.8860    6.3215 H   0  0  0  0  0  0  0  0  0  0  0  0
   20.6752   19.3800    5.4566 H   0  0  0  0  0  0  0  0  0  0  0  0
   22.3740   16.9600    6.3900 N   0  0  0  0  0  0  0  0  0  0  0  0
   21.9138   16.9741    4.3327 H   0  0  0  0  0  0  0  0  0  0  0  0
   22.6730   18.4790    4.9614 H   0  0  0  0  0  0  0  0  0  0  0  0
   21.6120   16.0560    6.7760 N   0  0  0  0  0  4  0  0  0  0  0  0
   20.9250   15.2200    7.1350 N   0  0  0  0  0  2  0  0  0  0  0  0
  1  2  1  0
  2  3  2  0
  2  4  1  0
  1  5  1  0
  6  1  1  0
  1  7  1  0
  5  8  1  0
  5  9  1  0
  5 10  1  0
 11  6  1  0
  6 12  1  0
  6 13  1  0
  8 14  1  0
 15  8  1  0
  8 16  1  1
 15 11  2  0
 17 11  1  0
 18 15  1  0
 17 19  2  0
 17 20  1  0
 21 18  2  0
 18 22  1  0
 19 21  1  0
 19 23  1  0
 21 24  1  0
  4 25  1  0
  4 26  1  0
  4 27  1  0
 25 28  1  0
 25 29  1  0
 25 30  1  0
 31 28  1  0
 28 32  1  0
 28 33  1  0
 34 31  1  0
 31 35  1  0
 31 36  1  0
 34 37  2  0
 37 38  2  0
M  CHG  3   1   1  37   1  38  -1
M  END
$$$$

     RDKit          3D

 40 43  0  0  0  0  0  0  0  0999 V2000
   17.9250   14.3610    4.0380 N   0  0  0  0  0  4  0  0  0  0  0  0
   18.7650   14.8820    4.3360 C   0  0  0  0  0  0  0  0  0  0  0  0
   19.1330   14.1260    3.3880 O   0  0  0  0  0  0  0  0  0  0  0  0
   19.8960   15.5210    5.1630 C   0  0  0  0  0  0  0  0  0  0  0  0
   17.3750   15.7260    4.3310 C   0  0  0  0  0  0  0  0  0  0  0  0
   17.0650   13.6110    3.0750 C   0  0  0  0  0  0  0  0  0  0  0  0
   17.9537   13.8314    4.9209 H   0  0  0  0  0  0  0  0  0  0  0  0
   15.9920   15.6460    4.9920 C   0  0  1  0  0  0  0  0  0  0  0  0
   17.2886   16.2863    3.3884 H   0  0  0  0  0  0  0  0  0  0  0  0
   18.0608   16.2321    5.0264 H   0  0  0  0  0  0  0  0  0  0  0  0
   15.6080   13.6480    3.4460 C   0  0  0  0  0  0  0  0  0  0  0  0
   17.1850   14.0557    2.0761 H   0  0  0  0  0  0  0  0  0  0  0  0
   17.3856   12.5589    3.0936 H   0  0  0  0  0  0  0  0  0  0  0  0
   15.4660   16.9020    4.9890 F   0  0  0  0  0  0  0  0  0  0  0  0
   15.0920   14.6360    4.3130 C   0  0  0  0  0  0  0  0  0  0  0  0
   16.0858   15.2853    6.0269 H   0  0  0  0  0  0  0  0  0  0  0  0
   14.7310   12.7190    2.8650 C   0  0  0  0  0  0  0  0  0  0  0  0
   13.7180   14.6590    4.5950 C   0  0  0  0  0  0  0  0  0  0  0  0
   13.3670   12.7560    3.1530 C   0  0  0  0  0  0  0  0  0  0  0  0
   15.1227   11.9555    2.1768 H   0  0  0  0  0  0  0  0  0  0  0  0
   12.8620   13.7240    4.0160 C   0  0  0  0  0  0  0  0  0  0  0  0
   13.3134   15.4204    5.2780 H   0  0  0  0  0  0  0  0  0  0  0  0
   12.6893   12.0190    2.6974 H   0  0  0  0  0  0  0  0  0  0  0  0
   11.7857   13.7511    4.2414 H   0  0  0  0  0  0  0  0  0  0  0  0
   20.2710   15.0480    6.4000 C   0  0  0  0  0  0  0  0  0  0  0  0
   20.7190   16.5890    4.8880 N   0  0  0  0  0  0  0  0  0  0  0  0
   21.3480   15.7310    6.8920 N   0  0  0  0  0  0  0  0  0  0  0  0
   19.7673   14.2239    6.9265 H   0  0  0  0  0  0  0  0  0  0  0  0
   21.6150   16.6360    5.9730 C   0  0  0  0  0  0  0  0  0  0  0  0
   20.7630   17.5440    3.8430 C   0  0  0  0  0  0  0  0  0  0  0  0
   22.6340   17.6270    5.9600 C   0  0  0  0  0  0  0  0  0  0  0  0
   19.7410   17.5510    2.7470 C   0  0  0  0  0  0  0  0  0  0  0  0
   21.7270   18.4900    3.8750 C   0  0  0  0  0  0  0  0  0  0  0  0
   22.6950   18.5130    4.9530 C   0  0  0  0  0  0  0  0  0  0  0  0
   23.3722   17.6680    6.7745 H   0  0  0  0  0  0  0  0  0  0  0  0
   18.7325   17.5579    3.1861 H   0  0  0  0  0  0  0  0  0  0  0  0
   19.8763   18.4482    2.1252 H   0  0  0  0  0  0  0  0  0  0  0  0
   19.8640   16.6520    2.1252 H   0  0  0  0  0  0  0  0  0  0  0  0
   21.7773   19.2469    3.0784 H   0  0  0  0  0  0  0  0  0  0  0  0
   23.4936   19.2694    4.9462 H   0  0  0  0  0  0  0  0  0  0  0  0
  1  2  1  0
  2  3  2  0
  2  4  1  0
  1  5  1  0
  6  1  1  0
  1  7  1  0
  5  8  1  0
  5  9  1  0
  5 10  1  0
 11  6  1  0
  6 12  1  0
  6 13  1  0
  8 14  1  0
 15  8  1  0
  8 16  1  1
 15 11  2  0
 17 11  1  0
 18 15  1  0
 17 19  2  0
 17 20  1  0
 21 18  2  0
 18 22  1  0
 19 21  1  0
 19 23  1  0
 21 24  1  0
 25  4  2  0
 26  4  1  0
 27 25  1  0
 25 28  1  0
 26 29  1  0
 30 26  1  0
 29 27  2  0
 31 29  1  0
 32 30  1  0
 33 30  2  0
 31 34  2  0
 31 35  1  0
 32 36  1  0
 32 37  1  0
 32 38  1  0
 34 33  1  0
 33 39  1  0
 34 40  1  0
M  CHG  1   1   1
M  END
$$$$

     RDKit          3D

 43 44  0  0  0  0  0  0  0  0999 V2000
   17.9250   14.3610    4.0380 N   0  0  0  0  0  4  0  0  0  0  0  0
   18.4400   15.5110    3.4470 C   0  0  0  0  0  0  0  0  0  0  0  0
   19.4550   14.8000    3.1550 O   0  0  0  0  0  0  0  0  0  0  0  0
   18.7390   16.9710    3.7610 C   0  0  0  0  0  0  0  0  0  0  0  0
   17.3750   15.7260    4.3310 C   0  0  0  0  0  0  0  0  0  0  0  0
   17.0650   13.6110    3.0750 C   0  0  0  0  0  0  0  0  0  0  0  0
   17.9537   13.8314    4.9209 H   0  0  0  0  0  0  0  0  0  0  0  0
   15.9920   15.6460    4.9920 C   0  0  1  0  0  0  0  0  0  0  0  0
   17.2886   16.2863    3.3884 H   0  0  0  0  0  0  0  0  0  0  0  0
   18.0608   16.2321    5.0264 H   0  0  0  0  0  0  0  0  0  0  0  0
   15.6080   13.6480    3.4460 C   0  0  0  0  0  0  0  0  0  0  0  0
   17.1850   14.0557    2.0761 H   0  0  0  0  0  0  0  0  0  0  0  0
   17.3856   12.5589    3.0936 H   0  0  0  0  0  0  0  0  0  0  0  0
   15.4660   16.9020    4.9890 F   0  0  0  0  0  0  0  0  0  0  0  0
   15.0920   14.6360    4.3130 C   0  0  0  0  0  0  0  0  0  0  0  0
   16.0858   15.2853    6.0269 H   0  0  0  0  0  0  0  0  0  0  0  0
   14.7310   12.7190    2.8650 C   0  0  0  0  0  0  0  0  0  0  0  0
   13.7180   14.6590    4.5950 C   0  0  0  0  0  0  0  0  0  0  0  0
   13.3670   12.7560    3.1530 C   0  0  0  0  0  0  0  0  0  0  0  0
   15.1227   11.9555    2.1768 H   0  0  0  0  0  0  0  0  0  0  0  0
   12.8620   13.7240    4.0160 C   0  0  0  0  0  0  0  0  0  0  0  0
   13.3134   15.4204    5.2780 H   0  0  0  0  0  0  0  0  0  0  0  0
   12.6893   12.0190    2.6974 H   0  0  0  0  0  0  0  0  0  0  0  0
   11.7857   13.7511    4.2414 H   0  0  0  0  0  0  0  0  0  0  0  0
   18.9440   17.1650    5.2900 C   0  0  0  0  0  0  0  0  0  0  0  0
   19.7410   17.4720    2.7310 C   0  0  0  0  0  0  0  0  0  0  0  0
   17.9076   17.6774    3.6205 H   0  0  0  0  0  0  0  0  0  0  0  0
   19.5230   18.5670    5.5930 C   0  0  0  0  0  0  0  0  0  0  0  0
   17.5460   17.1220    5.9730 C   0  0  0  0  0  0  0  0  0  0  0  0
   19.8440   16.1410    6.0320 C   0  0  0  0  0  0  0  0  0  0  0  0
   20.8940   17.7740    3.1700 O   0  0  0  0  0  0  0  0  0  0  0  0
   19.3100   17.7050    1.5630 O   0  0  0  0  0  1  0  0  0  0  0  0
   19.5827   18.7116    6.6818 H   0  0  0  0  0  0  0  0  0  0  0  0
   20.5292   18.6504    5.1563 H   0  0  0  0  0  0  0  0  0  0  0  0
   18.8689   19.3361    5.1563 H   0  0  0  0  0  0  0  0  0  0  0  0
   17.6715   17.1259    7.0658 H   0  0  0  0  0  0  0  0  0  0  0  0
   16.9616   18.0026    5.6679 H   0  0  0  0  0  0  0  0  0  0  0  0
   17.0169   16.2072    5.6679 H   0  0  0  0  0  0  0  0  0  0  0  0
   19.3370   15.1800    6.6420 O   0  0  0  0  0  0  0  0  0  0  0  0
   21.3180   16.3930    6.2240 C   0  0  0  0  0  0  0  0  0  0  0  0
   21.5463   16.4320    7.2993 H   0  0  0  0  0  0  0  0  0  0  0  0
   21.8929   15.5801    5.7564 H   0  0  0  0  0  0  0  0  0  0  0  0
   21.5902   17.3507    5.7564 H   0  0  0  0  0  0  0  0  0  0  0  0
  1  2  1  0
  2  3  2  0
  2  4  1  0
  1  5  1  0
  6  1  1  0
  1  7  1  0
  5  8  1  0
  5  9  1  0
  5 10  1  0
 11  6  1  0
  6 12  1  0
  6 13  1  0
  8 14  1  0
 15  8  1  0
  8 16  1  1
 15 11  2  0
 17 11  1  0
 18 15  1  0
 17 19  2  0
 17 20  1  0
 21 18  2  0
 18 22  1  0
 19 21  1  0
 19 23  1  0
 21 24  1  0
 25  4  1  0
 26  4  1  0
  4 27  1  0
 28 25  1  0
 29 25  1  0
 30 25  1  0
 31 26  2  0
 32 26  1  0
 28 33  1  0
 28 34  1  0
 28 35  1  0
 29 36  1  0
 29 37  1  0
 29 38  1  0
 39 30  2  0
 40 30  1  0
 40 41  1  0
 40 42  1  0
 40 43  1  0
M  CHG  2   1   1  32  -1
M  END
$$$$

     RDKit          3D

 40 42  0  0  0  0  0  0  0  0999 V2000
   17.9250   14.3610    4.0380 N   0  0  0  0  0  4  0  0  0  0  0  0
   18.7080   15.4180    3.9420 C   0  0  0  0  0  0  0  0  0  0  0  0
   19.6620   14.7520    3.4380 O   0  0  0  0  0  0  0  0  0  0  0  0
   19.0290   16.1830    5.2740 C   0  0  0  0  0  0  0  0  0  0  0  0
   17.3750   15.7260    4.3310 C   0  0  0  0  0  0  0  0  0  0  0  0
   17.0650   13.6110    3.0750 C   0  0  0  0  0  0  0  0  0  0  0  0
   17.9537   13.8314    4.9209 H   0  0  0  0  0  0  0  0  0  0  0  0
   15.9920   15.6460    4.9920 C   0  0  1  0  0  0  0  0  0  0  0  0
   17.2886   16.2863    3.3884 H   0  0  0  0  0  0  0  0  0  0  0  0
   18.0608   16.2321    5.0264 H   0  0  0  0  0  0  0  0  0  0  0  0
   15.6080   13.6480    3.4460 C   0  0  0  0  0  0  0  0  0  0  0  0
   17.1850   14.0557    2.0761 H   0  0  0  0  0  0  0  0  0  0  0  0
   17.3856   12.5589    3.0936 H   0  0  0  0  0  0  0  0  0  0  0  0
   15.4660   16.9020    4.9890 F   0  0  0  0  0  0  0  0  0  0  0  0
   15.0920   14.6360    4.3130 C   0  0  0  0  0  0  0  0  0  0  0  0
   16.0858   15.2853    6.0269 H   0  0  0  0  0  0  0  0  0  0  0  0
   14.7310   12.7190    2.8650 C   0  0  0  0  0  0  0  0  0  0  0  0
   13.7180   14.6590    4.5950 C   0  0  0  0  0  0  0  0  0  0  0  0
   13.3670   12.7560    3.1530 C   0  0  0  0  0  0  0  0  0  0  0  0
   15.1227   11.9555    2.1768 H   0  0  0  0  0  0  0  0  0  0  0  0
   12.8620   13.7240    4.0160 C   0  0  0  0  0  0  0  0  0  0  0  0
   13.3134   15.4204    5.2780 H   0  0  0  0  0  0  0  0  0  0  0  0
   12.6893   12.0190    2.6974 H   0  0  0  0  0  0  0  0  0  0  0  0
   11.7857   13.7511    4.2414 H   0  0  0  0  0  0  0  0  0  0  0  0
   17.8650   17.0840    5.7270 C   0  0  0  0  0  0  0  0  0  0  0  0
   19.1970   15.0710    6.3280 C   0  0  0  0  0  0  0  0  0  0  0  0
   20.3080   17.0190    5.1120 C   0  0  0  0  0  0  0  0  0  0  0  0
   17.8291   17.1118    6.8261 H   0  0  0  0  0  0  0  0  0  0  0  0
   18.0170   18.1021    5.3392 H   0  0  0  0  0  0  0  0  0  0  0  0
   16.9175   16.6816    5.3392 H   0  0  0  0  0  0  0  0  0  0  0  0
   19.1310   15.5077    7.3354 H   0  0  0  0  0  0  0  0  0  0  0  0
   18.4019   14.3217    6.2004 H   0  0  0  0  0  0  0  0  0  0  0  0
   20.1780   14.5900    6.2004 H   0  0  0  0  0  0  0  0  0  0  0  0
   20.5450   18.1040    4.2820 C   0  0  0  0  0  0  0  0  0  0  0  0
   21.7230   16.6420    6.0240 S   0  0  0  0  0  0  0  0  0  0  0  0
   21.8670   18.6200    4.4010 C   0  0  0  0  0  0  0  0  0  0  0  0
   19.7894   18.5233    3.6014 H   0  0  0  0  0  0  0  0  0  0  0  0
   22.6120   17.9160    5.3180 C   0  0  0  0  0  0  0  0  0  0  0  0
   22.2468   19.4788    3.8281 H   0  0  0  0  0  0  0  0  0  0  0  0
   23.6582   18.1471    5.5671 H   0  0  0  0  0  0  0  0  0  0  0  0
  1  2  1  0
  2  3  2  0
  2  4  1  0
  1  5  1  0
  6  1  1  0
  1  7  1  0
  5  8  1  0
  5  9  1  0
  5 10  1  0
 11  6  1  0
  6 12  1  0
  6 13  1  0
  8 14  1  0
 15  8  1  0
  8 16  1  1
 15 11  2  0
 17 11  1  0
 18 15  1  0
 17 19  2  0
 17 20  1  0
 21 18  2  0
 18 22  1  0
 19 21  1  0
 19 23  1  0
 21 24  1  0
 25  4  1  0
 26  4  1  0
 27  4  1  0
 25 28  1  0
 25 29  1  0
 25 30  1  0
 26 31  1  0
 26 32  1  0
 26 33  1  0
 34 27  2  0
 35 27  1  0
 36 34  1  0
 34 37  1  0
 35 38  1  0
 38 36  2  0
 36 39  1  0
 38 40  1  0
M  CHG  1   1   1
M  END
$$$$

     RDKit          3D

 37 40  0  0  0  0  0  0  0  0999 V2000
   17.9250   14.3610    4.0380 N   0  0  0  0  0  4  0  0  0  0  0  0
   18.6420   14.9750    3.6490 C   0  0  0  0  0  0  0  0  0  0  0  0
   18.9300   13.8050    3.2430 O   0  0  0  0  0  0  0  0  0  0  0  0
   19.7680   15.9070    3.8370 C   0  0  2  0  0  0  0  0  0  0  0  0
   17.3750   15.7260    4.3310 C   0  0  0  0  0  0  0  0  0  0  0  0
   17.0650   13.6110    3.0750 C   0  0  0  0  0  0  0  0  0  0  0  0
   17.9537   13.8314    4.9209 H   0  0  0  0  0  0  0  0  0  0  0  0
   15.9920   15.6460    4.9920 C   0  0  1  0  0  0  0  0  0  0  0  0
   17.2886   16.2863    3.3884 H   0  0  0  0  0  0  0  0  0  0  0  0
   18.0608   16.2321    5.0264 H   0  0  0  0  0  0  0  0  0  0  0  0
   15.6080   13.6480    3.4460 C   0  0  0  0  0  0  0  0  0  0  0  0
   17.1850   14.0557    2.0761 H   0  0  0  0  0  0  0  0  0  0  0  0
   17.3856   12.5589    3.0936 H   0  0  0  0  0  0  0  0  0  0  0  0
   15.4660   16.9020    4.9890 F   0  0  0  0  0  0  0  0  0  0  0  0
   15.0920   14.6360    4.3130 C   0  0  0  0  0  0  0  0  0  0  0  0
   16.0858   15.2853    6.0269 H   0  0  0  0  0  0  0  0  0  0  0  0
   14.7310   12.7190    2.8650 C   0  0  0  0  0  0  0  0  0  0  0  0
   13.7180   14.6590    4.5950 C   0  0  0  0  0  0  0  0  0  0  0  0
   13.3670   12.7560    3.1530 C   0  0  0  0  0  0  0  0  0  0  0  0
   15.1227   11.9555    2.1768 H   0  0  0  0  0  0  0  0  0  0  0  0
   12.8620   13.7240    4.0160 C   0  0  0  0  0  0  0  0  0  0  0  0
   13.3134   15.4204    5.2780 H   0  0  0  0  0  0  0  0  0  0  0  0
   12.6893   12.0190    2.6974 H   0  0  0  0  0  0  0  0  0  0  0  0
   11.7857   13.7511    4.2414 H   0  0  0  0  0  0  0  0  0  0  0  0
   20.4780   15.9110    5.1750 C   0  0  2  0  0  0  0  0  0  0  0  0
   19.5800   17.0640    4.7890 C   0  0  1  0  0  0  0  0  0  0  0  0
   20.0854   15.8039    2.7889 H   0  0  0  0  0  0  0  0  0  0  0  0
   21.9150   16.1120    5.1250 O   0  0  0  0  0  0  0  0  0  0  0  0
   20.5323   15.2429    6.0472 H   0  0  0  0  0  0  0  0  0  0  0  0
   20.1830   18.3440    4.4420 O   0  0  0  0  0  0  0  0  0  0  0  0
   18.7166   17.5599    5.2566 H   0  0  0  0  0  0  0  0  0  0  0  0
   22.2740   17.4760    5.3310 C   0  0  0  0  0  0  0  0  0  0  0  0
   21.6010   18.3310    4.2720 C   0  0  0  0  0  0  0  0  0  0  0  0
   23.3658   17.5854    5.2539 H   0  0  0  0  0  0  0  0  0  0  0  0
   21.9479   17.7986    6.3308 H   0  0  0  0  0  0  0  0  0  0  0  0
   21.8393   17.9244    3.2781 H   0  0  0  0  0  0  0  0  0  0  0  0
   21.9726   19.3618    4.3692 H   0  0  0  0  0  0  0  0  0  0  0  0
  1  2  1  0
  2  3  2  0
  2  4  1  0
  1  5  1  0
  6  1  1  0
  1  7  1  0
  5  8  1  0
  5  9  1  0
  5 10  1  0
 11  6  1  0
  6 12  1  0
  6 13  1  0
  8 14  1  0
 15  8  1  0
  8 16  1  1
 15 11  2  0
 17 11  1  0
 18 15  1  0
 17 19  2  0
 17 20  1  0
 21 18  2  0
 18 22  1  0
 19 21  1  0
 19 23  1  0
 21 24  1  0
 25  4  1  0
 26  4  1  0
  4 27  1  6
 26 25  1  0
 28 25  1  0
 25 29  1  1
 30 26  1  0
 26 31  1  1
 28 32  1  0
 33 30  1  0
 32 33  1  0
 32 34  1  0
 32 35  1  0
 33 36  1  0
 33 37  1  0
M  CHG  1   1   1
M  END
$$$$

     RDKit          3D

 44 47  0  0  0  0  0  0  0  0999 V2000
   19.6450   17.5300    3.0890 N   0  0  0  0  0  0  0  0  0  0  0  0
   19.5760   15.9820    3.6740 C   0  0  0  0  0  0  0  0  0  0  0  0
   20.1760   14.8970    3.9170 O   0  0  0  0  0  0  0  0  0  0  0  0
   18.1090   15.8250    3.3030 C   0  0  0  0  0  0  0  0  0  0  0  0
   20.5440   17.3930    4.1450 C   0  0  0  0  0  0  0  0  0  0  0  0
   19.8298   18.2132    2.3407 H   0  0  0  0  0  0  0  0  0  0  0  0
   21.7040   18.1680    4.2160 C   0  0  0  0  0  0  0  0  0  0  0  0
   20.4340   16.4420    5.1530 C   0  0  0  0  0  0  0  0  0  0  0  0
   22.6190   18.0040    5.2620 C   0  0  0  0  0  0  0  0  0  0  0  0
   21.9014   18.9193    3.4372 H   0  0  0  0  0  0  0  0  0  0  0  0
   21.3810   16.3310    6.1650 C   0  0  0  0  0  0  0  0  0  0  0  0
   19.5230   15.4630    5.4430 N   0  0  0  0  0  0  0  0  0  0  0  0
   22.4790   17.1090    6.2460 N   0  0  0  0  0  0  0  0  0  0  0  0
   23.7690   18.8140    5.2890 N   0  0  0  0  0  0  0  0  0  0  0  0
   21.0500   15.3350    7.0460 N   0  0  0  0  0  0  0  0  0  0  0  0
   19.9300   14.8290    6.5830 C   0  0  0  0  0  0  0  0  0  0  0  0
   18.6778   15.2424    4.8971 H   0  0  0  0  0  0  0  0  0  0  0  0
   24.4550   18.7092    6.0502 H   0  0  0  0  0  0  0  0  0  0  0  0
   23.9250   19.5118    4.5476 H   0  0  0  0  0  0  0  0  0  0  0  0
   19.3864   13.9972    7.0548 H   0  0  0  0  0  0  0  0  0  0  0  0
   17.2730   15.1930    4.4110 C   0  0  1  0  0  0  0  0  0  0  0  0
   18.0409   15.1893    2.4079 H   0  0  0  0  0  0  0  0  0  0  0  0
   17.7072   16.8335    3.1253 H   0  0  0  0  0  0  0  0  0  0  0  0
   16.5230   16.3070    5.1810 C   0  0  0  0  0  0  0  0  0  0  0  0
   16.1160   14.3420    3.9130 C   0  0  0  0  0  0  0  0  0  0  0  0
   17.9960   14.5978    4.9881 H   0  0  0  0  0  0  0  0  0  0  0  0
   16.9950   17.2430    5.8090 O   0  0  0  0  0  0  0  0  0  0  0  0
   15.1610   16.0750    5.0440 N   0  0  0  0  0  0  0  0  0  0  0  0
   14.9130   14.9310    4.3090 C   0  0  0  0  0  0  0  0  0  0  0  0
   16.1000   13.1420    3.2110 C   0  0  0  0  0  0  0  0  0  0  0  0
   14.4274   16.6796    5.4404 H   0  0  0  0  0  0  0  0  0  0  0  0
   13.6740   14.4050    4.0050 C   0  0  0  0  0  0  0  0  0  0  0  0
   17.3540   12.4420    2.7860 C   0  0  0  0  0  0  0  0  0  0  0  0
   14.8420   12.6010    2.8760 C   0  0  0  0  0  0  0  0  0  0  0  0
   13.6340   13.2260    3.2550 C   0  0  0  0  0  0  0  0  0  0  0  0
   12.7493   14.8967    4.3414 H   0  0  0  0  0  0  0  0  0  0  0  0
   17.9180   12.1272    3.6764 H   0  0  0  0  0  0  0  0  0  0  0  0
   17.0948   11.5581    2.1847 H   0  0  0  0  0  0  0  0  0  0  0  0
   17.9703   13.1266    2.1847 H   0  0  0  0  0  0  0  0  0  0  0  0
   14.8003   11.6636    2.3020 H   0  0  0  0  0  0  0  0  0  0  0  0
   12.3210   12.5910    2.9070 C   0  0  0  0  0  0  0  0  0  0  0  0
   11.7832   12.3309    3.8307 H   0  0  0  0  0  0  0  0  0  0  0  0
   11.7172   13.2967    2.3175 H   0  0  0  0  0  0  0  0  0  0  0  0
   12.4993   11.6796    2.3175 H   0  0  0  0  0  0  0  0  0  0  0  0
  1  2  1  0
  2  3  2  0
  2  4  1  0
  1  5  1  0
  1  6  1  0
  5  7  2  0
  8  5  1  0
  7  9  1  0
  7 10  1  0
 11  8  2  0
 12  8  1  0
 13  9  2  0
 14  9  1  0
 13 11  1  0
 15 11  1  0
 12 16  1  0
 12 17  1  0
 14 18  1  0
 14 19  1  0
 16 15  2  0
 16 20  1  0
  4 21  1  0
  4 22  1  0
  4 23  1  0
 24 21  1  0
 25 21  1  0
 21 26  1  1
 27 24  2  0
 28 24  1  0
 25 29  2  0
 30 25  1  0
 29 28  1  0
 28 31  1  0
 32 29  1  0
 33 30  1  0
 34 30  2  0
 32 35  2  0
 32 36  1  0
 33 37  1  0
 33 38  1  0
 33 39  1  0
 35 34  1  0
 34 40  1  0
 41 35  1  0
 41 42  1  0
 41 43  1  0
 41 44  1  0
M  END
$$$$

     RDKit          3D

 37 39  0  0  0  0  0  0  0  0999 V2000
   19.6450   17.5300    3.0890 N   0  0  0  0  0  0  0  0  0  0  0  0
   18.5880   15.8570    3.7050 C   0  0  0  0  0  0  0  0  0  0  0  0
   19.4290   14.9780    3.3360 O   0  0  0  0  0  0  0  0  0  0  0  0
   17.1820   15.3760    4.0130 C   0  0  0  0  0  0  0  0  0  0  0  0
   20.5440   17.3930    4.1450 C   0  0  0  0  0  0  0  0  0  0  0  0
   19.8298   18.2132    2.3407 H   0  0  0  0  0  0  0  0  0  0  0  0
   21.7040   18.1680    4.2160 C   0  0  0  0  0  0  0  0  0  0  0  0
   20.4340   16.4420    5.1530 C   0  0  0  0  0  0  0  0  0  0  0  0
   22.6190   18.0040    5.2620 C   0  0  0  0  0  0  0  0  0  0  0  0
   21.9014   18.9193    3.4372 H   0  0  0  0  0  0  0  0  0  0  0  0
   21.3810   16.3310    6.1650 C   0  0  0  0  0  0  0  0  0  0  0  0
   19.5230   15.4630    5.4430 N   0  0  0  0  0  0  0  0  0  0  0  0
   22.4790   17.1090    6.2460 N   0  0  0  0  0  0  0  0  0  0  0  0
   23.7690   18.8140    5.2890 N   0  0  0  0  0  0  0  0  0  0  0  0
   21.0500   15.3350    7.0460 N   0  0  0  0  0  0  0  0  0  0  0  0
   19.9300   14.8290    6.5830 C   0  0  0  0  0  0  0  0  0  0  0  0
   18.6778   15.2424    4.8971 H   0  0  0  0  0  0  0  0  0  0  0  0
   24.4550   18.7092    6.0502 H   0  0  0  0  0  0  0  0  0  0  0  0
   23.9250   19.5118    4.5476 H   0  0  0  0  0  0  0  0  0  0  0  0
   19.3864   13.9972    7.0548 H   0  0  0  0  0  0  0  0  0  0  0  0
   16.3690   16.0660    4.9200 C   0  0  0  0  0  0  0  0  0  0  0  0
   16.6570   14.2290    3.3970 C   0  0  0  0  0  0  0  0  0  0  0  0
   15.0720   15.6270    5.2070 C   0  0  0  0  0  0  0  0  0  0  0  0
   16.7564   16.9685    5.4154 H   0  0  0  0  0  0  0  0  0  0  0  0
   15.3530   13.7730    3.6750 C   0  0  0  0  0  0  0  0  0  0  0  0
   17.2786   13.6727    2.6799 H   0  0  0  0  0  0  0  0  0  0  0  0
   14.5580   14.4840    4.5900 C   0  0  0  0  0  0  0  0  0  0  0  0
   14.4525   16.1860    5.9237 H   0  0  0  0  0  0  0  0  0  0  0  0
   14.8250   12.5390    2.9970 C   0  0  0  0  0  0  0  0  0  0  0  0
   13.3020   13.9810    4.8090 O   0  0  0  0  0  0  0  0  0  0  0  0
   14.5850   11.5070    3.8620 F   0  0  0  0  0  0  0  0  0  0  0  0
   13.6420   12.7270    2.3400 F   0  0  0  0  0  0  0  0  0  0  0  0
   15.6740   12.0360    2.0520 F   0  0  0  0  0  0  0  0  0  0  0  0
   12.2000   14.7920    4.4230 C   0  0  0  0  0  0  0  0  0  0  0  0
   11.6890   15.1681    5.3216 H   0  0  0  0  0  0  0  0  0  0  0  0
   12.5615   15.6411    3.8244 H   0  0  0  0  0  0  0  0  0  0  0  0
   11.4968   14.1943    3.8244 H   0  0  0  0  0  0  0  0  0  0  0  0
  1  2  1  0
  2  3  2  0
  2  4  1  0
  1  5  1  0
  1  6  1  0
  5  7  2  0
  8  5  1  0
  7  9  1  0
  7 10  1  0
 11  8  2  0
 12  8  1  0
 13  9  2  0
 14  9  1  0
 13 11  1  0
 15 11  1  0
 12 16  1  0
 12 17  1  0
 14 18  1  0
 14 19  1  0
 16 15  2  0
 16 20  1  0
  4 21  2  0
 22  4  1  0
 21 23  1  0
 21 24  1  0
 25 22  2  0
 22 26  1  0
 23 27  2  0
 23 28  1  0
 25 27  1  0
 29 25  1  0
 30 27  1  0
 31 29  1  0
 32 29  1  0
 33 29  1  0
 30 34  1  0
 34 35  1  0
 34 36  1  0
 34 37  1  0
M  END
$$$$

     RDKit          3D

 47 48  0  0  0  0  0  0  0  0999 V2000
   19.8020   15.5010    4.3610 N   0  0  0  0  0  4  0  0  0  0  0  0
   18.7480   14.8900    4.1070 C   0  0  0  0  0  0  0  0  0  0  0  0
   19.2540   15.4900    3.1080 O   0  0  0  0  0  0  0  0  0  0  0  0
   17.2350   14.7860    4.1530 C   0  0  0  0  0  0  0  0  0  0  0  0
   19.3680   15.3180    5.7870 C   0  0  0  0  0  0  0  0  0  0  0  0
   20.4230   16.8090    3.9640 C   0  0  0  0  0  0  0  0  0  0  0  0
   20.4902   14.7627    4.1554 H   0  0  0  0  0  0  0  0  0  0  0  0
   20.5620   14.9400    6.6660 C   0  0  0  0  0  0  0  0  0  0  0  0
   18.6145   14.5181    5.8363 H   0  0  0  0  0  0  0  0  0  0  0  0
   18.9416   16.2635    6.1533 H   0  0  0  0  0  0  0  0  0  0  0  0
   21.2210   17.5430    5.0620 C   0  0  2  0  0  0  0  0  0  0  0  0
   21.1067   16.6152    3.1244 H   0  0  0  0  0  0  0  0  0  0  0  0
   19.5812   17.4727    3.7171 H   0  0  0  0  0  0  0  0  0  0  0  0
   21.4180   16.0300    6.9800 O   0  0  0  0  0  0  0  0  0  0  0  0
   21.1529   14.1776    6.1372 H   0  0  0  0  0  0  0  0  0  0  0  0
   20.1518   14.5735    7.6186 H   0  0  0  0  0  0  0  0  0  0  0  0
   22.0580   18.6440    4.4000 C   0  0  0  0  0  0  0  0  0  0  0  0
   22.1250   16.6100    5.8850 C   0  0  0  0  0  0  0  0  0  0  0  0
   20.2760   18.1980    5.9250 O   0  0  0  0  0  0  0  0  0  0  0  0
   22.5291   19.2637    5.1771 H   0  0  0  0  0  0  0  0  0  0  0  0
   22.8377   18.1855    3.7740 H   0  0  0  0  0  0  0  0  0  0  0  0
   21.4077   19.2726    3.7740 H   0  0  0  0  0  0  0  0  0  0  0  0
   22.4966   15.8057    5.2331 H   0  0  0  0  0  0  0  0  0  0  0  0
   22.9587   17.2038    6.2879 H   0  0  0  0  0  0  0  0  0  0  0  0
   20.5196   18.0292    6.8696 H   0  0  0  0  0  0  0  0  0  0  0  0
   16.4840   15.7790    4.8180 C   0  0  0  0  0  0  0  0  0  0  0  0
   16.5630   13.7030    3.5230 C   0  0  0  0  0  0  0  0  0  0  0  0
   17.1570   16.9330    5.5110 C   0  0  0  0  0  0  0  0  0  0  0  0
   15.0870   15.6760    4.8580 C   0  0  0  0  0  0  0  0  0  0  0  0
   15.1430   13.6520    3.5100 C   0  0  0  0  0  0  0  0  0  0  0  0
   17.3820   12.6340    2.8330 C   0  0  0  0  0  0  0  0  0  0  0  0
   17.0804   16.8016    6.6004 H   0  0  0  0  0  0  0  0  0  0  0  0
   18.2171   16.9680    5.2195 H   0  0  0  0  0  0  0  0  0  0  0  0
   16.6654   17.8729    5.2195 H   0  0  0  0  0  0  0  0  0  0  0  0
   14.4070   14.6280    4.2200 C   0  0  0  0  0  0  0  0  0  0  0  0
   14.5089   16.4363    5.4036 H   0  0  0  0  0  0  0  0  0  0  0  0
   14.4330   12.5360    2.7860 C   0  0  0  0  0  0  0  0  0  0  0  0
   17.8681   11.9996    3.5888 H   0  0  0  0  0  0  0  0  0  0  0  0
   16.7237   12.0164    2.2043 H   0  0  0  0  0  0  0  0  0  0  0  0
   18.1496   13.1089    2.2043 H   0  0  0  0  0  0  0  0  0  0  0  0
   12.9060   14.5990    4.2980 C   0  0  0  0  0  0  0  0  0  0  0  0
   13.9931   11.8445    3.5197 H   0  0  0  0  0  0  0  0  0  0  0  0
   13.6362   12.9568    2.1551 H   0  0  0  0  0  0  0  0  0  0  0  0
   15.1518   11.9926    2.1551 H   0  0  0  0  0  0  0  0  0  0  0  0
   12.5937   14.5930    5.3527 H   0  0  0  0  0  0  0  0  0  0  0  0
   12.4956   15.4894    3.7992 H   0  0  0  0  0  0  0  0  0  0  0  0
   12.5303   13.6934    3.7992 H   0  0  0  0  0  0  0  0  0  0  0  0
  1  2  1  0
  2  3  2  0
  2  4  1  0
  1  5  1  0
  6  1  1  0
  1  7  1  0
  5  8  1  0
  5  9  1  0
  5 10  1  0
  6 11  1  0
  6 12  1  0
  6 13  1  0
  8 14  1  0
  8 15  1  0
  8 16  1  0
 11 17  1  0
 18 11  1  0
 11 19  1  1
 14 18  1  0
 17 20  1  0
 17 21  1  0
 17 22  1  0
 18 23  1  0
 18 24  1  0
 19 25  1  0
 26  4  2  0
 27  4  1  0
 28 26  1  0
 29 26  1  0
 27 30  2  0
 31 27  1  0
 28 32  1  0
 28 33  1  0
 28 34  1  0
 35 29  2  0
 29 36  1  0
 30 35  1  0
 37 30  1  0
 31 38  1  0
 31 39  1  0
 31 40  1  0
 41 35  1  0
 37 42  1  0
 37 43  1  0
 37 44  1  0
 41 45  1  0
 41 46  1  0
 41 47  1  0
M  CHG  1   1   1
M  END
$$$$

     RDKit          3D

 42 44  0  0  0  0  0  0  0  0999 V2000
   19.8020   15.5010    4.3610 N   0  0  0  0  0  4  0  0  0  0  0  0
   19.0770   15.0340    4.0540 C   0  0  0  0  0  0  0  0  0  0  0  0
   19.5870   15.7120    3.1090 O   0  0  0  0  0  0  0  0  0  0  0  0
   17.5620   14.5490    3.8690 C   0  0  0  0  0  0  0  0  0  0  0  0
   19.3680   15.3180    5.7870 C   0  0  0  0  0  0  0  0  0  0  0  0
   20.4230   16.8090    3.9640 C   0  0  0  0  0  0  0  0  0  0  0  0
   20.4902   14.7627    4.1554 H   0  0  0  0  0  0  0  0  0  0  0  0
   20.5620   14.9400    6.6660 C   0  0  0  0  0  0  0  0  0  0  0  0
   18.6145   14.5181    5.8363 H   0  0  0  0  0  0  0  0  0  0  0  0
   18.9416   16.2635    6.1533 H   0  0  0  0  0  0  0  0  0  0  0  0
   21.2210   17.5430    5.0620 C   0  0  2  0  0  0  0  0  0  0  0  0
   21.1067   16.6152    3.1244 H   0  0  0  0  0  0  0  0  0  0  0  0
   19.5812   17.4727    3.7171 H   0  0  0  0  0  0  0  0  0  0  0  0
   21.4180   16.0300    6.9800 O   0  0  0  0  0  0  0  0  0  0  0  0
   21.1529   14.1776    6.1372 H   0  0  0  0  0  0  0  0  0  0  0  0
   20.1518   14.5735    7.6186 H   0  0  0  0  0  0  0  0  0  0  0  0
   22.0580   18.6440    4.4000 C   0  0  0  0  0  0  0  0  0  0  0  0
   22.1250   16.6100    5.8850 C   0  0  0  0  0  0  0  0  0  0  0  0
   20.2760   18.1980    5.9250 O   0  0  0  0  0  0  0  0  0  0  0  0
   22.5291   19.2637    5.1771 H   0  0  0  0  0  0  0  0  0  0  0  0
   22.8377   18.1855    3.7740 H   0  0  0  0  0  0  0  0  0  0  0  0
   21.4077   19.2726    3.7740 H   0  0  0  0  0  0  0  0  0  0  0  0
   22.4966   15.8057    5.2331 H   0  0  0  0  0  0  0  0  0  0  0  0
   22.9587   17.2038    6.2879 H   0  0  0  0  0  0  0  0  0  0  0  0
   20.5196   18.0292    6.8696 H   0  0  0  0  0  0  0  0  0  0  0  0
   16.4410   15.1790    4.3960 C   0  0  0  0  0  0  0  0  0  0  0  0
   17.1660   13.1560    2.9720 S   0  0  0  0  0  0  0  0  0  0  0  0
   15.2220   14.4750    4.0360 C   0  0  0  0  0  0  0  0  0  0  0  0
   16.4850   16.4250    5.2270 C   0  0  0  0  0  0  0  0  0  0  0  0
   15.4860   13.3470    3.2550 C   0  0  0  0  0  0  0  0  0  0  0  0
   13.8620   14.7500    4.3470 C   0  0  0  0  0  0  0  0  0  0  0  0
   16.4755   16.1551    6.2933 H   0  0  0  0  0  0  0  0  0  0  0  0
   17.4035   16.9856    4.9989 H   0  0  0  0  0  0  0  0  0  0  0  0
   15.6083   17.0490    4.9989 H   0  0  0  0  0  0  0  0  0  0  0  0
   14.4580   12.5060    2.7850 C   0  0  0  0  0  0  0  0  0  0  0  0
   12.8320   13.9190    3.8830 C   0  0  0  0  0  0  0  0  0  0  0  0
   13.6139   15.6283    4.9611 H   0  0  0  0  0  0  0  0  0  0  0  0
   13.1330   12.8040    3.1080 C   0  0  0  0  0  0  0  0  0  0  0  0
   14.6966   11.6251    2.1709 H   0  0  0  0  0  0  0  0  0  0  0  0
   11.4690   14.2190    4.2110 C   0  0  0  0  0  0  0  0  0  0  0  0
   12.3225   12.1534    2.7476 H   0  0  0  0  0  0  0  0  0  0  0  0
   10.3620   14.4550    4.4680 N   0  0  0  0  0  0  0  0  0  0  0  0
  1  2  1  0
  2  3  2  0
  2  4  1  0
  1  5  1  0
  6  1  1  0
  1  7  1  0
  5  8  1  0
  5  9  1  0
  5 10  1  0
  6 11  1  0
  6 12  1  0
  6 13  1  0
  8 14  1  0
  8 15  1  0
  8 16  1  0
 11 17  1  0
 18 11  1  0
 11 19  1  1
 14 18  1  0
 17 20  1  0
 17 21  1  0
 17 22  1  0
 18 23  1  0
 18 24  1  0
 19 25  1  0
  4 26  2  0
 27  4  1  0
 26 28  1  0
 29 26  1  0
 27 30  1  0
 28 30  2  0
 31 28  1  0
 29 32  1  0
 29 33  1  0
 29 34  1  0
 30 35  1  0
 31 36  2  0
 31 37  1  0
 35 38  2  0
 35 39  1  0
 38 36  1  0
 40 36  1  0
 38 41  1  0
 40 42  3  0
M  CHG  1   1   1
M  END
$$$$

     RDKit          3D

 34 36  0  0  0  0  0  0  0  0999 V2000
   18.8020   16.4880    3.2380 N   0  0  0  0  0  4  0  0  0  0  0  0
   19.5830   17.0100    2.7820 C   0  0  0  0  0  0  0  0  0  0  0  0
   19.5440   17.7830    1.7750 O   0  0  0  0  0  0  0  0  0  0  0  0
   19.7570   17.6780    4.1710 C   0  0  0  0  0  0  0  0  0  0  0  0
   18.3220   15.6650    4.3830 C   0  0  2  0  0  0  0  0  0  0  0  0
   19.4511   15.9316    2.6635 H   0  0  0  0  0  0  0  0  0  0  0  0
   17.9981   16.7790    2.6635 H   0  0  0  0  0  0  0  0  0  0  0  0
   17.5680   14.4530    3.8160 C   0  0  0  0  0  0  0  0  0  0  0  0
   17.4860   16.4920    5.3160 C   0  0  1  0  0  0  0  0  0  0  0  0
   19.1672   15.2989    4.9844 H   0  0  0  0  0  0  0  0  0  0  0  0
   16.1730   14.8240    3.3090 C   0  0  0  0  0  0  0  0  0  0  0  0
   18.1484   14.0341    2.9807 H   0  0  0  0  0  0  0  0  0  0  0  0
   17.4479   13.7207    4.6280 H   0  0  0  0  0  0  0  0  0  0  0  0
   15.9790   16.3720    5.2880 C   0  0  2  0  0  0  0  0  0  0  0  0
   16.7610   15.8880    6.4890 C   0  0  0  0  0  0  0  0  0  0  0  0
   18.2151   17.3083    5.2059 H   0  0  0  0  0  0  0  0  0  0  0  0
   15.2860   15.3510    4.4340 C   0  0  0  0  0  0  0  0  0  0  0  0
   16.2693   15.6015    2.5368 H   0  0  0  0  0  0  0  0  0  0  0  0
   15.7045   13.9173    2.8986 H   0  0  0  0  0  0  0  0  0  0  0  0
   15.1637   17.0859    5.0993 H   0  0  0  0  0  0  0  0  0  0  0  0
   16.7023   16.4366    7.4406 H   0  0  0  0  0  0  0  0  0  0  0  0
   16.8301   14.9385    7.0401 H   0  0  0  0  0  0  0  0  0  0  0  0
   14.3914   15.8122    3.9901 H   0  0  0  0  0  0  0  0  0  0  0  0
   15.0266   14.4989    5.0794 H   0  0  0  0  0  0  0  0  0  0  0  0
   20.3050   16.7870    5.2480 C   0  0  0  0  0  0  0  0  0  0  0  0
   18.7719   18.0411    4.4991 H   0  0  0  0  0  0  0  0  0  0  0  0
   20.4985   18.4786    4.0324 H   0  0  0  0  0  0  0  0  0  0  0  0
   21.3980   16.8780    6.0800 C   0  0  0  0  0  0  0  0  0  0  0  0
   19.7010   15.6070    5.6060 N   0  0  0  0  0  0  0  0  0  0  0  0
   21.4700   15.7950    6.9250 N   0  0  0  0  0  0  0  0  0  0  0  0
   22.1195   17.7083    6.0703 H   0  0  0  0  0  0  0  0  0  0  0  0
   20.4340   15.0480    6.6070 C   0  0  0  0  0  0  0  0  0  0  0  0
   18.8443   15.2143    5.1903 H   0  0  0  0  0  0  0  0  0  0  0  0
   20.1908   14.0904    7.0905 H   0  0  0  0  0  0  0  0  0  0  0  0
  1  2  1  0
  2  3  2  0
  2  4  1  0
  1  5  1  0
  1  6  1  0
  1  7  1  0
  8  5  1  0
  9  5  1  0
  5 10  1  1
 11  8  1  0
  8 12  1  0
  8 13  1  0
  9 14  1  0
 15  9  1  0
  9 16  1  1
 17 11  1  0
 11 18  1  0
 11 19  1  0
 14 17  1  0
 15 14  1  0
 14 20  1  1
 15 21  1  0
 15 22  1  0
 17 23  1  0
 17 24  1  0
  4 25  1  0
  4 26  1  0
  4 27  1  0
 28 25  2  0
 29 25  1  0
 30 28  1  0
 28 31  1  0
 29 32  1  0
 29 33  1  0
 32 30  2  0
 32 34  1  0
M  CHG  1   1   1
M  END
$$$$

     RDKit          3D

 34 36  0  0  0  0  0  0  0  0999 V2000
   18.8020   16.4880    3.2380 N   0  0  0  0  0  4  0  0  0  0  0  0
   19.4970   16.9670    2.9480 C   0  0  0  0  0  0  0  0  0  0  0  0
   19.5220   17.8710    2.0670 O   0  0  0  0  0  0  0  0  0  0  0  0
   19.3920   17.4600    4.4030 C   0  0  0  0  0  0  0  0  0  0  0  0
   18.3220   15.6650    4.3830 C   0  0  2  0  0  0  0  0  0  0  0  0
   19.4511   15.9316    2.6635 H   0  0  0  0  0  0  0  0  0  0  0  0
   17.9981   16.7790    2.6635 H   0  0  0  0  0  0  0  0  0  0  0  0
   17.5680   14.4530    3.8160 C   0  0  0  0  0  0  0  0  0  0  0  0
   17.4860   16.4920    5.3160 C   0  0  1  0  0  0  0  0  0  0  0  0
   19.1672   15.2989    4.9844 H   0  0  0  0  0  0  0  0  0  0  0  0
   16.1730   14.8240    3.3090 C   0  0  0  0  0  0  0  0  0  0  0  0
   18.1484   14.0341    2.9807 H   0  0  0  0  0  0  0  0  0  0  0  0
   17.4479   13.7207    4.6280 H   0  0  0  0  0  0  0  0  0  0  0  0
   15.9790   16.3720    5.2880 C   0  0  2  0  0  0  0  0  0  0  0  0
   16.7610   15.8880    6.4890 C   0  0  0  0  0  0  0  0  0  0  0  0
   18.2151   17.3083    5.2059 H   0  0  0  0  0  0  0  0  0  0  0  0
   15.2860   15.3510    4.4340 C   0  0  0  0  0  0  0  0  0  0  0  0
   16.2693   15.6015    2.5368 H   0  0  0  0  0  0  0  0  0  0  0  0
   15.7045   13.9173    2.8986 H   0  0  0  0  0  0  0  0  0  0  0  0
   15.1637   17.0859    5.0993 H   0  0  0  0  0  0  0  0  0  0  0  0
   16.7023   16.4366    7.4406 H   0  0  0  0  0  0  0  0  0  0  0  0
   16.8301   14.9385    7.0401 H   0  0  0  0  0  0  0  0  0  0  0  0
   14.3914   15.8122    3.9901 H   0  0  0  0  0  0  0  0  0  0  0  0
   15.0266   14.4989    5.0794 H   0  0  0  0  0  0  0  0  0  0  0  0
   20.3630   16.8540    5.3200 N   0  0  0  0  0  0  0  0  0  0  0  0
   18.3813   17.2309    4.7717 H   0  0  0  0  0  0  0  0  0  0  0  0
   19.6080   18.5384    4.3852 H   0  0  0  0  0  0  0  0  0  0  0  0
   20.0910   15.8330    6.1630 C   0  0  0  0  0  0  0  0  0  0  0  0
   21.6920   17.1130    5.4930 C   0  0  0  0  0  0  0  0  0  0  0  0
   21.0930   15.4300    6.8850 N   0  0  0  0  0  0  0  0  0  0  0  0
   19.0928   15.3761    6.2327 H   0  0  0  0  0  0  0  0  0  0  0  0
   22.1240   16.2300    6.4770 N   0  0  0  0  0  0  0  0  0  0  0  0
   22.6840   18.2270    4.7710 S   0  0  0  0  0  0  0  0  0  0  0  0
   23.0846   16.1851    6.8461 H   0  0  0  0  0  0  0  0  0  0  0  0
  1  2  1  0
  2  3  2  0
  2  4  1  0
  1  5  1  0
  1  6  1  0
  1  7  1  0
  8  5  1  0
  9  5  1  0
  5 10  1  1
 11  8  1  0
  8 12  1  0
  8 13  1  0
  9 14  1  0
 15  9  1  0
  9 16  1  1
 17 11  1  0
 11 18  1  0
 11 19  1  0
 14 17  1  0
 15 14  1  0
 14 20  1  1
 15 21  1  0
 15 22  1  0
 17 23  1  0
 17 24  1  0
  4 25  1  0
  4 26  1  0
  4 27  1  0
 28 25  1  0
 29 25  1  0
 30 28  2  0
 28 31  1  0
 29 32  1  0
 33 29  2  0
 32 30  1  0
 32 34  1  0
M  CHG  1   1   1
M  END
$$$$

     RDKit          3D

 34 35  0  0  0  0  0  0  0  0999 V2000
   18.8020   16.4880    3.2380 N   0  0  0  0  0  4  0  0  0  0  0  0
   19.5790   17.0590    2.6260 C   0  0  0  0  0  0  0  0  0  0  0  0
   19.5650   17.6870    1.5280 O   0  0  0  0  0  0  0  0  0  0  0  0
   19.9350   17.8940    3.8570 C   0  0  0  0  0  0  0  0  0  0  0  0
   18.3220   15.6650    4.3830 C   0  0  2  0  0  0  0  0  0  0  0  0
   19.4511   15.9316    2.6635 H   0  0  0  0  0  0  0  0  0  0  0  0
   17.9981   16.7790    2.6635 H   0  0  0  0  0  0  0  0  0  0  0  0
   17.5680   14.4530    3.8160 C   0  0  0  0  0  0  0  0  0  0  0  0
   17.4860   16.4920    5.3160 C   0  0  1  0  0  0  0  0  0  0  0  0
   19.1672   15.2989    4.9844 H   0  0  0  0  0  0  0  0  0  0  0  0
   16.1730   14.8240    3.3090 C   0  0  0  0  0  0  0  0  0  0  0  0
   18.1484   14.0341    2.9807 H   0  0  0  0  0  0  0  0  0  0  0  0
   17.4479   13.7207    4.6280 H   0  0  0  0  0  0  0  0  0  0  0  0
   15.9790   16.3720    5.2880 C   0  0  2  0  0  0  0  0  0  0  0  0
   16.7610   15.8880    6.4890 C   0  0  0  0  0  0  0  0  0  0  0  0
   18.2151   17.3083    5.2059 H   0  0  0  0  0  0  0  0  0  0  0  0
   15.2860   15.3510    4.4340 C   0  0  0  0  0  0  0  0  0  0  0  0
   16.2693   15.6015    2.5368 H   0  0  0  0  0  0  0  0  0  0  0  0
   15.7045   13.9173    2.8986 H   0  0  0  0  0  0  0  0  0  0  0  0
   15.1637   17.0859    5.0993 H   0  0  0  0  0  0  0  0  0  0  0  0
   16.7023   16.4366    7.4406 H   0  0  0  0  0  0  0  0  0  0  0  0
   16.8301   14.9385    7.0401 H   0  0  0  0  0  0  0  0  0  0  0  0
   14.3914   15.8122    3.9901 H   0  0  0  0  0  0  0  0  0  0  0  0
   15.0266   14.4989    5.0794 H   0  0  0  0  0  0  0  0  0  0  0  0
   19.4980   16.9020    5.3090 S   0  0  0  0  0  0  0  0  0  0  0  0
   19.3635   18.8339    3.8549 H   0  0  0  0  0  0  0  0  0  0  0  0
   21.0045   18.1512    3.8628 H   0  0  0  0  0  0  0  0  0  0  0  0
   21.3520   16.1670    5.9380 S   0  0  0  0  0  6  0  0  0  0  0  0
   21.8830   15.3080    4.8960 O   0  0  0  0  0  0  0  0  0  0  0  0
   21.2740   15.7560    7.3240 O   0  0  0  0  0  0  0  0  0  0  0  0
   22.3930   17.6030    5.9370 C   0  0  0  0  0  0  0  0  0  0  0  0
   22.6085   17.9003    6.9739 H   0  0  0  0  0  0  0  0  0  0  0  0
   23.3352   17.3725    5.4182 H   0  0  0  0  0  0  0  0  0  0  0  0
   21.8809   18.4268    5.4182 H   0  0  0  0  0  0  0  0  0  0  0  0
  1  2  1  0
  2  3  2  0
  2  4  1  0
  1  5  1  0
  1  6  1  0
  1  7  1  0
  8  5  1  0
  9  5  1  0
  5 10  1  1
 11  8  1  0
  8 12  1  0
  8 13  1  0
  9 14  1  0
 15  9  1  0
  9 16  1  1
 17 11  1  0
 11 18  1  0
 11 19  1  0
 14 17  1  0
 15 14  1  0
 14 20  1  1
 15 21  1  0
 15 22  1  0
 17 23  1  0
 17 24  1  0
  4 25  1  0
  4 26  1  0
  4 27  1  0
 28 25  1  0
 29 28  2  0
 30 28  2  0
 31 28  1  0
 31 32  1  0
 31 33  1  0
 31 34  1  0
M  CHG  1   1   1
M  END
$$$$

     RDKit          3D

 52 55  0  0  0  0  0  0  0  0999 V2000
   21.8950   15.3150    5.8800 N   0  0  0  0  0  4  0  0  0  0  0  0
   21.7040   16.2680    5.9730 C   0  0  0  0  0  0  0  0  0  0  0  0
   21.4700   15.9280    7.1760 O   0  0  0  0  0  0  0  0  0  0  0  0
   21.8480   17.7120    5.6220 C   0  0  0  0  0  0  0  0  0  0  0  0
   20.8160   15.5880    4.9010 C   0  0  0  0  0  0  0  0  0  0  0  0
   22.2495   14.3578    5.7422 H   0  0  0  0  0  0  0  0  0  0  0  0
   22.6621   15.9884    5.7422 H   0  0  0  0  0  0  0  0  0  0  0  0
   19.5670   16.1460    5.5960 C   0  0  2  0  0  0  0  0  0  0  0  0
   20.5528   14.6521    4.3864 H   0  0  0  0  0  0  0  0  0  0  0  0
   21.1788   16.3365    4.1812 H   0  0  0  0  0  0  0  0  0  0  0  0
   18.8540   14.9960    6.3270 C   0  0  0  0  0  0  0  0  0  0  0  0
   18.6290   16.8660    4.6150 C   0  0  0  0  0  0  0  0  0  0  0  0
   19.8755   16.9083    6.3266 H   0  0  0  0  0  0  0  0  0  0  0  0
   17.5070   15.3970    6.9280 C   0  0  0  0  0  0  0  0  0  0  0  0
   18.6858   14.1790    5.6099 H   0  0  0  0  0  0  0  0  0  0  0  0
   19.5028   14.6920    7.1617 H   0  0  0  0  0  0  0  0  0  0  0  0
   17.3150   17.2940    5.2680 C   0  0  0  0  0  0  0  0  0  0  0  0
   19.1400   17.7612    4.2311 H   0  0  0  0  0  0  0  0  0  0  0  0
   18.3860   16.1607    3.8066 H   0  0  0  0  0  0  0  0  0  0  0  0
   16.5730   16.1430    5.9610 C   0  0  1  0  0  0  0  0  0  0  0  0
   16.9950   14.4831    7.2635 H   0  0  0  0  0  0  0  0  0  0  0  0
   17.7268   16.0940    7.7501 H   0  0  0  0  0  0  0  0  0  0  0  0
   16.6596   17.7125    4.4900 H   0  0  0  0  0  0  0  0  0  0  0  0
   17.5646   18.0323    6.0443 H   0  0  0  0  0  0  0  0  0  0  0  0
   15.8910   15.2350    4.9490 C   0  0  0  0  0  0  0  0  0  0  0  0
   15.7629   16.5618    6.5761 H   0  0  0  0  0  0  0  0  0  0  0  0
   16.6410   14.5960    3.9840 C   0  0  0  0  0  0  0  0  0  0  0  0
   14.5580   15.0380    5.0630 N   0  0  0  0  0  0  0  0  0  0  0  0
   15.9520   13.7570    3.1460 C   0  0  0  0  0  0  0  0  0  0  0  0
   17.7263   14.7500    3.8920 H   0  0  0  0  0  0  0  0  0  0  0  0
   13.9570   14.2030    4.1880 C   0  0  0  0  0  0  0  0  0  0  0  0
   14.6280   13.5490    3.2370 N   0  0  0  0  0  0  0  0  0  0  0  0
   16.5114   13.2281    2.3603 H   0  0  0  0  0  0  0  0  0  0  0  0
   12.5950   14.0760    4.3490 N   0  0  0  0  0  0  0  0  0  0  0  0
   11.6380   13.3840    3.6380 C   0  0  0  0  0  0  0  0  0  0  0  0
   12.2201   14.5975    5.1542 H   0  0  0  0  0  0  0  0  0  0  0  0
   11.9550   12.5200    2.6650 N   0  0  0  0  0  0  0  0  0  0  0  0
   10.3680   13.6360    4.0120 N   0  0  0  0  0  0  0  0  0  0  0  0
   10.9460   11.8960    2.0290 C   0  0  0  0  0  0  0  0  0  0  0  0
    9.3910   12.9890    3.3450 C   0  0  0  0  0  0  0  0  0  0  0  0
    9.6250   12.0960    2.3300 C   0  0  0  0  0  0  0  0  0  0  0  0
   11.1957   11.1880    1.2250 H   0  0  0  0  0  0  0  0  0  0  0  0
    8.3476   13.1883    3.6307 H   0  0  0  0  0  0  0  0  0  0  0  0
    8.8126   11.5794    1.7979 H   0  0  0  0  0  0  0  0  0  0  0  0
   20.6500   18.6230    5.5710 C   0  0  0  0  0  0  0  0  0  0  0  0
   21.3610   18.2440    4.3010 C   0  0  0  0  0  0  0  0  0  0  0  0
   23.0720   18.3190    6.1260 O   0  0  0  0  0  0  0  0  0  0  0  0
   19.6464   18.2240    5.7795 H   0  0  0  0  0  0  0  0  0  0  0  0
   20.3732   19.5717    6.0540 H   0  0  0  0  0  0  0  0  0  0  0  0
   20.8771   17.5680    3.5807 H   0  0  0  0  0  0  0  0  0  0  0  0
   21.8193   18.8011    3.4706 H   0  0  0  0  0  0  0  0  0  0  0  0
   23.0600   18.3130    7.1159 H   0  0  0  0  0  0  0  0  0  0  0  0
  1  2  1  0
  2  3  2  0
  2  4  1  0
  1  5  1  0
  1  6  1  0
  1  7  1  0
  5  8  1  0
  5  9  1  0
  5 10  1  0
 11  8  1  0
 12  8  1  0
  8 13  1  1
 14 11  1  0
 11 15  1  0
 11 16  1  0
 12 17  1  0
 12 18  1  0
 12 19  1  0
 20 14  1  0
 14 21  1  0
 14 22  1  0
 17 20  1  0
 17 23  1  0
 17 24  1  0
 20 25  1  0
 20 26  1  1
 27 25  2  0
 28 25  1  0
 29 27  1  0
 27 30  1  0
 28 31  2  0
 32 29  2  0
 29 33  1  0
 31 32  1  0
 34 31  1  0
 35 34  1  0
 34 36  1  0
 37 35  2  0
 38 35  1  0
 39 37  1  0
 38 40  2  0
 41 39  2  0
 39 42  1  0
 40 41  1  0
 40 43  1  0
 41 44  1  0
 45  4  1  0
 46  4  1  0
 47  4  1  0
 46 45  1  0
 45 48  1  0
 45 49  1  0
 46 50  1  0
 46 51  1  0
 47 52  1  0
M  CHG  1   1   1
M  END
$$$$
