=
     RDKit          3D

 37 36  0  0  0  0  0  0  0  0999 V2000
   18.8240   14.9600    5.6840 C   0  0  0  0  0  0  0  0  0  0  0  0
   17.6290   15.7240    6.2630 C   0  0  0  0  0  0  0  0  0  0  0  0
   16.7040   16.2340    5.1560 C   0  0  0  0  0  0  0  0  0  0  0  0
   15.6990   15.1590    4.7390 C   0  0  0  0  0  0  0  0  0  0  0  0
   16.0240   14.6030    3.3570 C   0  0  0  0  0  0  0  0  0  0  0  0
   14.2460   13.1020    3.7380 O   0  0  0  0  0  1  0  0  0  0  0  0
   15.4060   13.2110    3.2480 C   0  0  0  0  0  0  0  0  0  0  0  0
   16.1350   12.3440    2.6900 O   0  0  0  0  0  0  0  0  0  0  0  0
   20.0660   15.0650    6.5630 C   0  0  0  0  0  0  0  0  0  0  0  0
   21.0480   16.0800    6.0300 C   0  0  0  0  0  0  0  0  0  0  0  0
   22.0040   16.4980    6.6680 O   0  0  0  0  0  0  0  0  0  0  0  0
   20.7140   16.4290    4.7610 O   0  0  0  0  0  0  0  0  0  0  0  0
   20.5180   17.8180    4.3960 C   0  0  0  0  0  0  0  0  0  0  0  0
   21.8430   18.4820    4.0050 C   0  0  0  0  0  0  0  0  0  0  0  0
   19.6090   17.7720    3.1600 C   0  0  0  0  0  0  0  0  0  0  0  0
   19.7980   18.5870    5.5080 C   0  0  0  0  0  0  0  0  0  0  0  0
   18.5502   13.8992    5.5855 H   0  0  0  0  0  0  0  0  0  0  0  0
   19.0660   15.4076    4.7088 H   0  0  0  0  0  0  0  0  0  0  0  0
   17.0607   15.0525    6.9234 H   0  0  0  0  0  0  0  0  0  0  0  0
   18.0102   16.5908    6.8228 H   0  0  0  0  0  0  0  0  0  0  0  0
   16.1564   17.1147    5.5228 H   0  0  0  0  0  0  0  0  0  0  0  0
   17.3175   16.4966    4.2816 H   0  0  0  0  0  0  0  0  0  0  0  0
   15.7275   14.3385    5.4711 H   0  0  0  0  0  0  0  0  0  0  0  0
   14.6983   15.6143    4.7035 H   0  0  0  0  0  0  0  0  0  0  0  0
   15.6020   15.2599    2.5822 H   0  0  0  0  0  0  0  0  0  0  0  0
   17.1134   14.5483    3.2149 H   0  0  0  0  0  0  0  0  0  0  0  0
   19.7603   15.3640    7.5765 H   0  0  0  0  0  0  0  0  0  0  0  0
   20.5615   14.0830    6.5720 H   0  0  0  0  0  0  0  0  0  0  0  0
   22.3965   18.7594    4.9142 H   0  0  0  0  0  0  0  0  0  0  0  0
   22.4441   17.7786    3.4101 H   0  0  0  0  0  0  0  0  0  0  0  0
   21.6393   19.3845    3.4101 H   0  0  0  0  0  0  0  0  0  0  0  0
   18.5578   17.7188    3.4797 H   0  0  0  0  0  0  0  0  0  0  0  0
   19.7635   18.6791    2.5573 H   0  0  0  0  0  0  0  0  0  0  0  0
   19.8543   16.8851    2.5573 H   0  0  0  0  0  0  0  0  0  0  0  0
   20.1402   18.2215    6.4874 H   0  0  0  0  0  0  0  0  0  0  0  0
   20.0240   19.6597    5.4176 H   0  0  0  0  0  0  0  0  0  0  0  0
   18.7127   18.4320    5.4176 H   0  0  0  0  0  0  0  0  0  0  0  0
  2  1  1  0
  3  2  1  0
  4  3  1  0
  5  4  1  0
  7  6  1  0
  7  5  1  0
  8  7  2  0
  9  1  1  0
 10  9  1  0
 11 10  2  0
 12 10  1  0
 13 12  1  0
 14 13  1  0
 15 13  1  0
 16 13  1  0
  1 17  1  0
  1 18  1  0
  2 19  1  0
  2 20  1  0
  3 21  1  0
  3 22  1  0
  4 23  1  0
  4 24  1  0
  5 25  1  0
  5 26  1  0
  9 27  1  0
  9 28  1  0
 14 29  1  0
 14 30  1  0
 14 31  1  0
 15 32  1  0
 15 33  1  0
 15 34  1  0
 16 35  1  0
 16 36  1  0
 16 37  1  0
M  CHG  1   6  -1
M  END
$$$$
=
     RDKit          3D

 31 32  0  0  0  0  0  0  0  0999 V2000
   17.9210   16.3020    4.3810 C   0  0  2  0  0  0  0  0  0  0  0  0
   17.3860   15.0010    3.8280 C   0  0  0  0  0  0  0  0  0  0  0  0
   16.0350   14.8060    3.5400 C   0  0  0  0  0  0  0  0  0  0  0  0
   15.1420   15.7610    3.8310 F   0  0  0  0  0  0  0  0  0  0  0  0
   15.5680   13.6060    3.0040 C   0  0  0  0  0  0  0  0  0  0  0  0
   16.4570   12.5630    2.7540 C   0  0  0  0  0  0  0  0  0  0  0  0
   17.8060   12.7260    3.0580 C   0  0  0  0  0  0  0  0  0  0  0  0
   18.2530   13.9330    3.5920 C   0  0  0  0  0  0  0  0  0  0  0  0
   19.5490   14.0480    3.9210 F   0  0  0  0  0  0  0  0  0  0  0  0
   19.3020   16.6790    3.7400 N   0  0  0  0  0  4  0  0  0  0  0  0
   20.1490   17.5950    4.6060 C   0  0  0  0  0  0  0  0  0  0  0  0
   21.4970   17.8180    3.9020 C   0  0  0  0  0  0  0  0  0  0  0  0
   21.3390   18.3700    2.5880 O   0  0  0  0  0  0  0  0  0  0  0  0
   20.4990   17.5590    1.7570 C   0  0  0  0  0  0  0  0  0  0  0  0
   19.1160   17.3350    2.3820 C   0  0  0  0  0  0  0  0  0  0  0  0
   17.1300   17.4550    6.3230 O   0  0  0  0  0  1  0  0  0  0  0  0
   17.7300   16.4090    5.9370 C   0  0  0  0  0  0  0  0  0  0  0  0
   18.1320   15.4140    6.5990 O   0  0  0  0  0  0  0  0  0  0  0  0
   17.3006   17.1481    4.0505 H   0  0  0  0  0  0  0  0  0  0  0  0
   14.4983   13.4832    2.7788 H   0  0  0  0  0  0  0  0  0  0  0  0
   16.0963   11.6187    2.3201 H   0  0  0  0  0  0  0  0  0  0  0  0
   18.5159   11.9054    2.8774 H   0  0  0  0  0  0  0  0  0  0  0  0
   19.8033   15.7843    3.6440 H   0  0  0  0  0  0  0  0  0  0  0  0
   19.6359   18.5587    4.7400 H   0  0  0  0  0  0  0  0  0  0  0  0
   20.3094   17.1392    5.5942 H   0  0  0  0  0  0  0  0  0  0  0  0
   22.1016   18.5103    4.5063 H   0  0  0  0  0  0  0  0  0  0  0  0
   21.9894   16.8397    3.7995 H   0  0  0  0  0  0  0  0  0  0  0  0
   20.3728   18.0583    0.7850 H   0  0  0  0  0  0  0  0  0  0  0  0
   20.9821   16.5776    1.6406 H   0  0  0  0  0  0  0  0  0  0  0  0
   18.6027   18.3003    2.5033 H   0  0  0  0  0  0  0  0  0  0  0  0
   18.5081   16.6893    1.7312 H   0  0  0  0  0  0  0  0  0  0  0  0
  2  1  1  0
  3  2  2  0
  4  3  1  0
  5  3  1  0
  6  5  2  0
  7  6  1  0
  8  7  2  0
  8  2  1  0
  9  8  1  0
 10  1  1  0
 11 10  1  0
 12 11  1  0
 13 12  1  0
 14 13  1  0
 15 14  1  0
 15 10  1  0
 17  1  1  0
 17 16  1  0
 18 17  2  0
  1 19  1  6
  5 20  1  0
  6 21  1  0
  7 22  1  0
 10 23  1  0
 11 24  1  0
 11 25  1  0
 12 26  1  0
 12 27  1  0
 14 28  1  0
 14 29  1  0
 15 30  1  0
 15 31  1  0
M  CHG  2  10   1  16  -1
M  END
$$$$
=
     RDKit          3D

 13 13  0  0  0  0  0  0  0  0999 V2000
   20.1720   15.9910    5.0270 C   0  0  0  0  0  0  0  0  0  0  0  0
   20.1690   17.4770    4.9870 C   0  0  0  0  0  0  0  0  0  0  0  0
   19.8890   18.0670    3.8240 C   0  0  0  0  0  0  0  0  0  0  0  0
   19.5950   17.2470    2.6360 C   0  0  0  0  0  0  0  0  0  0  0  0
   19.3360   17.7780    1.5590 O   0  0  0  0  0  0  0  0  0  0  0  0
   19.6320   15.8890    2.8160 N   0  0  0  0  0  0  0  0  0  0  0  0
   19.9140   15.2430    3.9890 N   0  0  0  0  0  0  0  0  0  0  0  0
   19.7820   14.2880    6.6520 O   0  0  0  0  0  1  0  0  0  0  0  0
   20.4960   15.3060    6.3760 C   0  0  0  0  0  0  0  0  0  0  0  0
   21.4260   15.7990    7.0860 O   0  0  0  0  0  0  0  0  0  0  0  0
   20.3903   18.0702    5.8865 H   0  0  0  0  0  0  0  0  0  0  0  0
   19.8776   19.1646    3.7520 H   0  0  0  0  0  0  0  0  0  0  0  0
   19.4293   15.3017    1.9945 H   0  0  0  0  0  0  0  0  0  0  0  0
  2  1  1  0
  3  2  2  0
  4  3  1  0
  5  4  2  0
  6  4  1  0
  7  6  1  0
  7  1  2  0
  9  1  1  0
  9  8  1  0
 10  9  2  0
  2 11  1  0
  3 12  1  0
  6 13  1  0
M  CHG  1   8  -1
M  END
$$$$
=
     RDKit          3D

 18 18  0  0  0  0  0  0  0  0999 V2000
   23.6190   18.5580    5.3680 O   0  0  0  0  0  0  0  0  0  0  0  0
   22.6470   17.8210    5.4080 C   0  0  0  0  0  0  0  0  0  0  0  0
   22.5780   16.6690    6.1100 N   0  0  0  0  0  0  0  0  0  0  0  0
   21.3330   16.1940    6.3840 C   0  0  0  0  0  0  0  0  0  0  0  0
   21.1140   15.4720    7.3510 O   0  0  0  0  0  0  0  0  0  0  0  0
   20.2990   16.6800    5.3810 C   0  0  1  0  0  0  0  0  0  0  0  0
   21.1190   18.1740    4.6580 S   0  0  0  0  0  0  0  0  0  0  0  0
   20.0220   15.6270    4.3120 C   0  0  1  0  0  0  0  0  0  0  0  0
   19.2370   14.4230    4.8400 C   0  0  0  0  0  0  0  0  0  0  0  0
   19.1080   16.2100    3.2310 C   0  0  0  0  0  0  0  0  0  0  0  0
   19.6620   16.4810    2.1300 O   0  0  0  0  0  0  0  0  0  0  0  0
   17.9080   16.3650    3.5920 O   0  0  0  0  0  1  0  0  0  0  0  0
   23.4260   16.1747    6.4223 H   0  0  0  0  0  0  0  0  0  0  0  0
   19.3176   16.8913    5.8307 H   0  0  0  0  0  0  0  0  0  0  0  0
   21.0148   15.3226    3.9491 H   0  0  0  0  0  0  0  0  0  0  0  0
   19.2443   14.4343    5.9399 H   0  0  0  0  0  0  0  0  0  0  0  0
   18.1990   14.4754    4.4797 H   0  0  0  0  0  0  0  0  0  0  0  0
   19.7037   13.4944    4.4797 H   0  0  0  0  0  0  0  0  0  0  0  0
  2  1  2  0
  3  2  1  0
  4  3  1  0
  5  4  2  0
  6  4  1  0
  7  6  1  0
  7  2  1  0
  8  6  1  0
  9  8  1  0
 10  8  1  0
 11 10  2  0
 12 10  1  0
  3 13  1  0
  6 14  1  1
  8 15  1  6
  9 16  1  0
  9 17  1  0
  9 18  1  0
M  CHG  1  12  -1
M  END
$$$$
=
     RDKit          3D

 26 26  0  0  0  0  0  0  0  0999 V2000
   19.1060   15.6140    5.2190 C   0  0  0  0  0  0  0  0  0  0  0  0
   20.1810   16.5920    5.2540 N   0  0  0  0  0  0  0  0  0  0  0  0
   20.2970   17.6170    4.3610 C   0  0  0  0  0  0  0  0  0  0  0  0
   19.5310   17.9030    3.4550 O   0  0  0  0  0  0  0  0  0  0  0  0
   21.5500   18.3840    4.6610 C   0  0  0  0  0  0  0  0  0  0  0  0
   22.1640   17.6660    5.8460 C   0  0  0  0  0  0  0  0  0  0  0  0
   21.2190   16.5410    6.1380 C   0  0  0  0  0  0  0  0  0  0  0  0
   21.3890   15.7330    7.0390 O   0  0  0  0  0  0  0  0  0  0  0  0
   17.9590   16.0140    6.1480 C   0  0  0  0  0  0  0  0  0  0  0  0
   16.7750   16.5660    5.3550 C   0  0  0  0  0  0  0  0  0  0  0  0
   15.5830   15.6160    5.3970 C   0  0  0  0  0  0  0  0  0  0  0  0
   16.1000   14.9700    3.1650 O   0  0  0  0  0  1  0  0  0  0  0  0
   15.1970   15.0070    4.0450 C   0  0  0  0  0  0  0  0  0  0  0  0
   13.9970   14.6110    3.9820 O   0  0  0  0  0  0  0  0  0  0  0  0
   18.7239   15.5385    4.1903 H   0  0  0  0  0  0  0  0  0  0  0  0
   19.5058   14.6470    5.5582 H   0  0  0  0  0  0  0  0  0  0  0  0
   22.2329   18.3645    3.7989 H   0  0  0  0  0  0  0  0  0  0  0  0
   21.3488   19.4442    4.8744 H   0  0  0  0  0  0  0  0  0  0  0  0
   23.1615   17.2788    5.5910 H   0  0  0  0  0  0  0  0  0  0  0  0
   22.3005   18.3311    6.7115 H   0  0  0  0  0  0  0  0  0  0  0  0
   17.6309   15.1302    6.7147 H   0  0  0  0  0  0  0  0  0  0  0  0
   18.3191   16.7988    6.8295 H   0  0  0  0  0  0  0  0  0  0  0  0
   16.4765   17.5334    5.7852 H   0  0  0  0  0  0  0  0  0  0  0  0
   17.0863   16.6832    4.3065 H   0  0  0  0  0  0  0  0  0  0  0  0
   15.8255   14.7934    6.0858 H   0  0  0  0  0  0  0  0  0  0  0  0
   14.7208   16.2162    5.7230 H   0  0  0  0  0  0  0  0  0  0  0  0
  2  1  1  0
  3  2  1  0
  4  3  2  0
  5  3  1  0
  6  5  1  0
  7  2  1  0
  7  6  1  0
  8  7  2  0
  9  1  1  0
 10  9  1  0
 11 10  1  0
 13 12  1  0
 13 11  1  0
 14 13  2  0
  1 15  1  0
  1 16  1  0
  5 17  1  0
  5 18  1  0
  6 19  1  0
  6 20  1  0
  9 21  1  0
  9 22  1  0
 10 23  1  0
 10 24  1  0
 11 25  1  0
 11 26  1  0
M  CHG  1  12  -1
M  END
$$$$
=
     RDKit          3D

 26 26  0  0  0  0  0  0  0  0999 V2000
   16.8840   15.6800    4.3450 C   0  0  0  0  0  0  0  0  0  0  0  0
   17.8730   15.6460    3.4800 N   0  0  0  0  0  0  0  0  0  0  0  0
   18.8630   16.5590    3.7930 N   0  0  0  0  0  0  0  0  0  0  0  0
   18.5790   17.2460    4.8780 C   0  0  0  0  0  0  0  0  0  0  0  0
   17.0730   16.8360    5.5940 S   0  0  0  0  0  0  0  0  0  0  0  0
   15.4810   14.6400    4.2280 S   0  0  0  0  0  0  0  0  0  0  0  0
   16.0260   13.4360    2.9790 C   0  0  0  0  0  0  0  0  0  0  0  0
   13.6740   12.6960    3.4730 C   0  0  0  0  0  0  0  0  0  0  0  0
   14.9250   12.4300    2.6480 C   0  0  0  0  0  0  0  0  0  0  0  0
   19.6140   18.4850    5.5440 S   0  0  0  0  0  0  0  0  0  0  0  0
   21.2180   18.0540    4.7870 C   0  0  0  0  0  0  0  0  0  0  0  0
   22.1550   17.5430    5.8650 C   0  0  0  0  0  0  0  0  0  0  0  0
   21.7580   16.0880    6.0590 C   0  0  0  0  0  0  0  0  0  0  0  0
   21.3630   15.7920    7.2210 O   0  0  0  0  0  0  0  0  0  0  0  0
   21.8690   15.3620    5.0320 O   0  0  0  0  0  1  0  0  0  0  0  0
   16.3044   13.9750    2.0614 H   0  0  0  0  0  0  0  0  0  0  0  0
   16.8853   12.8832    3.3866 H   0  0  0  0  0  0  0  0  0  0  0  0
   13.9225   12.6432    4.5433 H   0  0  0  0  0  0  0  0  0  0  0  0
   13.2845   13.6970    3.2360 H   0  0  0  0  0  0  0  0  0  0  0  0
   12.9109   11.9400    3.2360 H   0  0  0  0  0  0  0  0  0  0  0  0
   15.2890   11.4148    2.8644 H   0  0  0  0  0  0  0  0  0  0  0  0
   14.6690   12.5299    1.5829 H   0  0  0  0  0  0  0  0  0  0  0  0
   21.0687   17.2720    4.0279 H   0  0  0  0  0  0  0  0  0  0  0  0
   21.6533   18.9443    4.3095 H   0  0  0  0  0  0  0  0  0  0  0  0
   23.2023   17.6196    5.5376 H   0  0  0  0  0  0  0  0  0  0  0  0
   22.0775   18.1245    6.7955 H   0  0  0  0  0  0  0  0  0  0  0  0
  2  1  2  0
  3  2  1  0
  4  3  2  0
  5  1  1  0
  5  4  1  0
  6  1  1  0
  7  6  1  0
  9  8  1  0
  9  7  1  0
 10  4  1  0
 11 10  1  0
 12 11  1  0
 13 12  1  0
 14 13  2  0
 15 13  1  0
  7 16  1  0
  7 17  1  0
  8 18  1  0
  8 19  1  0
  8 20  1  0
  9 21  1  0
  9 22  1  0
 11 23  1  0
 11 24  1  0
 12 25  1  0
 12 26  1  0
M  CHG  1  15  -1
M  END
$$$$
=
     RDKit          3D

 34 35  0  0  0  0  0  0  0  0999 V2000
   18.8700   15.6920    4.6350 N   0  0  0  0  0  0  0  0  0  0  0  0
   17.6920   15.6750    5.3750 C   0  0  0  0  0  0  0  0  0  0  0  0
   17.6600   15.4100    6.5770 O   0  0  0  0  0  0  0  0  0  0  0  0
   16.4280   16.0230    4.6720 C   0  0  2  0  0  0  0  0  0  0  0  0
   15.0930   15.4910    5.1320 C   0  0  0  0  0  0  0  0  0  0  0  0
   15.6690   15.0290    3.8160 C   0  0  2  0  0  0  0  0  0  0  0  0
   15.9250   13.5480    3.5590 C   0  0  0  0  0  0  0  0  0  0  0  0
   15.6910   12.8130    2.2650 C   0  0  0  0  0  0  0  0  0  0  0  0
   14.8300   12.5180    3.4550 C   0  0  0  0  0  0  0  0  0  0  0  0
   20.0570   15.0550    5.1910 C   0  0  0  0  0  0  0  0  0  0  0  0
   22.0100   16.5930    5.7510 C   0  0  0  0  0  0  0  0  0  0  0  0
   20.7520   15.9040    6.2580 C   0  0  0  0  0  0  0  0  0  0  0  0
   18.9540   16.1540    3.2270 C   0  0  0  0  0  0  0  0  0  0  0  0
   19.5500   17.5600    2.9850 C   0  0  0  0  0  0  0  0  0  0  0  0
   19.5280   18.3380    3.9820 O   0  0  0  0  0  0  0  0  0  0  0  0
   19.9490   17.7760    1.8040 O   0  0  0  0  0  1  0  0  0  0  0  0
   16.8584   17.0208    4.5012 H   0  0  0  0  0  0  0  0  0  0  0  0
   15.0424   14.7964    5.9835 H   0  0  0  0  0  0  0  0  0  0  0  0
   14.1423   15.9467    5.4458 H   0  0  0  0  0  0  0  0  0  0  0  0
   15.4262   15.0368    2.7431 H   0  0  0  0  0  0  0  0  0  0  0  0
   16.8058   13.7159    4.1961 H   0  0  0  0  0  0  0  0  0  0  0  0
   15.2688   13.3448    1.3996 H   0  0  0  0  0  0  0  0  0  0  0  0
   16.3164   12.2100    1.5903 H   0  0  0  0  0  0  0  0  0  0  0  0
   13.7763   12.8335    3.4626 H   0  0  0  0  0  0  0  0  0  0  0  0
   14.5627   11.6093    4.0142 H   0  0  0  0  0  0  0  0  0  0  0  0
   19.7603   14.0977    5.6443 H   0  0  0  0  0  0  0  0  0  0  0  0
   20.7713   14.9172    4.3659 H   0  0  0  0  0  0  0  0  0  0  0  0
   22.6163   16.9251    6.6066 H   0  0  0  0  0  0  0  0  0  0  0  0
   22.5931   15.8883    5.1399 H   0  0  0  0  0  0  0  0  0  0  0  0
   21.7302   17.4638    5.1399 H   0  0  0  0  0  0  0  0  0  0  0  0
   20.0476   16.6742    6.6053 H   0  0  0  0  0  0  0  0  0  0  0  0
   21.0555   15.2253    7.0687 H   0  0  0  0  0  0  0  0  0  0  0  0
   19.5744   15.4312    2.6768 H   0  0  0  0  0  0  0  0  0  0  0  0
   17.9105   16.2230    2.8858 H   0  0  0  0  0  0  0  0  0  0  0  0
  2  1  1  0
  3  2  2  0
  4  2  1  0
  5  4  1  0
  6  5  1  0
  6  4  1  0
  7  6  1  0
  8  7  1  0
  9  8  1  0
  9  7  1  0
 10  1  1  0
 12 10  1  0
 12 11  1  0
 13  1  1  0
 14 13  1  0
 15 14  2  0
 16 14  1  0
  4 17  1  6
  5 18  1  0
  5 19  1  0
  6 20  1  6
  7 21  1  0
  8 22  1  0
  8 23  1  0
  9 24  1  0
  9 25  1  0
 10 26  1  0
 10 27  1  0
 11 28  1  0
 11 29  1  0
 11 30  1  0
 12 31  1  0
 12 32  1  0
 13 33  1  0
 13 34  1  0
M  CHG  1  16  -1
M  END
$$$$
=
     RDKit          3D

 31 31  0  0  0  0  0  0  0  0999 V2000
   19.3970   17.0940    4.7590 C   0  0  0  0  0  0  0  0  0  0  0  0
   19.8620   15.6850    4.3130 C   0  0  0  0  0  0  0  0  0  0  0  0
   18.8170   14.7600    3.7190 C   0  0  0  0  0  0  0  0  0  0  0  0
   17.5090   14.7820    4.4810 N   0  0  0  0  0  4  0  0  0  0  0  0
   17.5570   15.6010    5.7390 C   0  0  0  0  0  0  0  0  0  0  0  0
   18.0140   17.0220    5.4680 C   0  0  0  0  0  0  0  0  0  0  0  0
   16.3530   15.1410    3.5850 C   0  0  0  0  0  0  0  0  0  0  0  0
   20.4160   17.6410    5.8140 C   0  0  0  0  0  0  0  0  0  0  0  0
   22.7060   17.0850    5.5490 O   0  0  0  0  0  1  0  0  0  0  0  0
   21.6460   16.7910    6.1620 C   0  0  0  0  0  0  0  0  0  0  0  0
   21.4430   15.9270    7.0650 O   0  0  0  0  0  0  0  0  0  0  0  0
   19.3420   18.0870    3.5600 C   0  0  0  0  0  0  0  0  0  0  0  0
   20.3750   17.8790    2.4500 C   0  0  0  0  0  0  0  0  0  0  0  0
   19.9260   17.4540    1.3480 O   0  0  0  0  0  0  0  0  0  0  0  0
   21.5510   18.2620    2.7090 O   0  0  0  0  0  1  0  0  0  0  0  0
   20.6495   15.8215    3.5572 H   0  0  0  0  0  0  0  0  0  0  0  0
   20.1824   15.1881    5.2406 H   0  0  0  0  0  0  0  0  0  0  0  0
   18.6238   15.0692    2.6812 H   0  0  0  0  0  0  0  0  0  0  0  0
   19.2137   13.7355    3.7739 H   0  0  0  0  0  0  0  0  0  0  0  0
   17.3482   13.8184    4.8075 H   0  0  0  0  0  0  0  0  0  0  0  0
   16.5516   15.6290    6.1844 H   0  0  0  0  0  0  0  0  0  0  0  0
   18.2797   15.1338    6.4242 H   0  0  0  0  0  0  0  0  0  0  0  0
   17.2666   17.5140    4.8282 H   0  0  0  0  0  0  0  0  0  0  0  0
   18.1180   17.5242    6.4412 H   0  0  0  0  0  0  0  0  0  0  0  0
   15.4823   15.4114    4.2004 H   0  0  0  0  0  0  0  0  0  0  0  0
   16.6325   15.9946    2.9501 H   0  0  0  0  0  0  0  0  0  0  0  0
   16.0998   14.2792    2.9501 H   0  0  0  0  0  0  0  0  0  0  0  0
   20.7857   18.6059    5.4367 H   0  0  0  0  0  0  0  0  0  0  0  0
   19.8396   17.6718    6.7504 H   0  0  0  0  0  0  0  0  0  0  0  0
   18.3434   18.0068    3.1058 H   0  0  0  0  0  0  0  0  0  0  0  0
   19.5723   19.0732    3.9894 H   0  0  0  0  0  0  0  0  0  0  0  0
  2  1  1  0
  3  2  1  0
  4  3  1  0
  5  4  1  0
  6  5  1  0
  6  1  1  0
  7  4  1  0
  8  1  1  0
 10  8  1  0
 10  9  1  0
 11 10  2  0
 12  1  1  0
 13 12  1  0
 14 13  2  0
 15 13  1  0
  2 16  1  0
  2 17  1  0
  3 18  1  0
  3 19  1  0
  4 20  1  0
  5 21  1  0
  5 22  1  0
  6 23  1  0
  6 24  1  0
  7 25  1  0
  7 26  1  0
  7 27  1  0
  8 28  1  0
  8 29  1  0
 12 30  1  0
 12 31  1  0
M  CHG  3   4   1   9  -1  15  -1
M  END
$$$$
=
     RDKit          3D

 22 22  0  0  0  0  0  0  0  0999 V2000
   19.7630   17.1850    4.5950 C   0  0  2  0  0  0  0  0  0  0  0  0
   20.2460   16.1290    5.4920 N   0  0  0  0  0  0  0  0  0  0  0  0
   19.5710   14.9310    5.5580 C   0  0  0  0  0  0  0  0  0  0  0  0
   19.5920   14.2250    6.5610 O   0  0  0  0  0  0  0  0  0  0  0  0
   18.7110   14.6170    4.3300 C   0  0  0  0  0  0  0  0  0  0  0  0
   19.2270   15.2630    3.1380 N   0  0  0  0  0  0  0  0  0  0  0  0
   19.5740   16.6010    3.1700 C   0  0  0  0  0  0  0  0  0  0  0  0
   19.5870   17.2440    2.1260 O   0  0  0  0  0  0  0  0  0  0  0  0
   20.6850   18.4030    4.5960 C   0  0  0  0  0  0  0  0  0  0  0  0
   22.0960   18.0430    4.1300 C   0  0  0  0  0  0  0  0  0  0  0  0
   24.0600   18.8460    5.1460 O   0  0  0  0  0  1  0  0  0  0  0  0
   23.0360   18.1310    5.3270 C   0  0  0  0  0  0  0  0  0  0  0  0
   22.6750   17.4650    6.3350 O   0  0  0  0  0  0  0  0  0  0  0  0
   18.7902   17.5434    4.9626 H   0  0  0  0  0  0  0  0  0  0  0  0
   21.0852   16.2832    6.0689 H   0  0  0  0  0  0  0  0  0  0  0  0
   18.7005   13.5287    4.1702 H   0  0  0  0  0  0  0  0  0  0  0  0
   17.6952   14.9964    4.5149 H   0  0  0  0  0  0  0  0  0  0  0  0
   19.3350   14.7243    2.2668 H   0  0  0  0  0  0  0  0  0  0  0  0
   20.2698   19.1652    3.9203 H   0  0  0  0  0  0  0  0  0  0  0  0
   20.7501   18.7836    5.6260 H   0  0  0  0  0  0  0  0  0  0  0  0
   22.1040   17.0199    3.7260 H   0  0  0  0  0  0  0  0  0  0  0  0
   22.4221   18.7376    3.3419 H   0  0  0  0  0  0  0  0  0  0  0  0
  2  1  1  0
  3  2  1  0
  4  3  2  0
  5  3  1  0
  6  5  1  0
  7  6  1  0
  7  1  1  0
  8  7  2  0
  9  1  1  0
 10  9  1  0
 12 11  1  0
 12 10  1  0
 13 12  2  0
  1 14  1  1
  2 15  1  0
  5 16  1  0
  5 17  1  0
  6 18  1  0
  9 19  1  0
  9 20  1  0
 10 21  1  0
 10 22  1  0
M  CHG  1  11  -1
M  END
$$$$
=
     RDKit          3D

 44 47  0  0  0  0  0  0  0  0999 V2000
   26.9170   27.1960   14.4860 C   0  0  2  0  0  0  0  0  0  0  0  0
   27.9560   27.6220   15.5460 C   0  0  0  0  0  0  0  0  0  0  0  0
   27.4070   28.4440   16.7040 C   0  0  0  0  0  0  0  0  0  0  0  0
   28.1020   29.2940   17.2600 O   0  0  0  0  0  0  0  0  0  0  0  0
   26.1640   28.0960   17.1560 N   0  0  0  0  0  0  0  0  0  0  0  0
   25.3190   27.2970   16.4310 C   0  0  0  0  0  0  0  0  0  0  0  0
   25.6060   26.8840   15.1490 C   0  0  0  0  0  0  0  0  0  0  0  0
   24.4870   26.2070   14.6670 N   0  0  0  0  0  0  0  0  0  0  0  0
   23.6060   26.0620   15.7270 C   0  0  0  0  0  0  0  0  0  0  0  0
   24.0700   26.7970   16.7970 C   0  0  0  0  0  0  0  0  0  0  0  0
   24.2030   25.7580   13.3440 C   0  0  0  0  0  0  0  0  0  0  0  0
   23.3710   26.4990   12.4930 C   0  0  0  0  0  0  0  0  0  0  0  0
   23.0920   26.0430   11.2000 C   0  0  0  0  0  0  0  0  0  0  0  0
   23.6330   24.8400   10.7550 C   0  0  0  0  0  0  0  0  0  0  0  0
   24.4370   24.0950   11.6090 C   0  0  0  0  0  0  0  0  0  0  0  0
   24.7210   24.5330   12.8990 C   0  0  0  0  0  0  0  0  0  0  0  0
   24.9510   22.9350   11.1780 F   0  0  0  0  0  0  0  0  0  0  0  0
   28.6310   23.9300   12.1820 C   0  0  0  0  0  0  0  0  0  0  0  0
   28.1940   25.0890   11.5390 C   0  0  0  0  0  0  0  0  0  0  0  0
   27.6420   26.1450   12.2670 C   0  0  0  0  0  0  0  0  0  0  0  0
   27.5300   26.0670   13.6630 C   0  0  0  0  0  0  0  0  0  0  0  0
   27.9520   24.8900   14.3000 C   0  0  0  0  0  0  0  0  0  0  0  0
   28.5040   23.8320   13.5670 C   0  0  0  0  0  0  0  0  0  0  0  0
   28.2220   22.1170   10.7030 C   0  0  0  0  0  0  0  0  0  0  0  0
   29.1500   22.9740   11.3520 O   0  0  0  0  0  0  0  0  0  0  0  0
   23.3510   27.0430   18.1680 C   0  0  0  0  0  0  0  0  0  0  0  0
   22.3340   26.3290   18.4150 O   0  0  0  0  0  0  0  0  0  0  0  0
   23.8600   27.9490   18.9000 O   0  0  0  0  0  1  0  0  0  0  0  0
   26.6747   28.0032   13.7791 H   0  0  0  0  0  0  0  0  0  0  0  0
   28.4100   26.7105   15.9619 H   0  0  0  0  0  0  0  0  0  0  0  0
   28.6723   28.2736   15.0241 H   0  0  0  0  0  0  0  0  0  0  0  0
   25.8522   28.4465   18.0730 H   0  0  0  0  0  0  0  0  0  0  0  0
   22.6863   25.4587   15.7163 H   0  0  0  0  0  0  0  0  0  0  0  0
   22.9345   27.4456   12.8443 H   0  0  0  0  0  0  0  0  0  0  0  0
   22.4455   26.6348   10.5354 H   0  0  0  0  0  0  0  0  0  0  0  0
   23.4257   24.4821    9.7357 H   0  0  0  0  0  0  0  0  0  0  0  0
   25.3478   23.9223   13.5654 H   0  0  0  0  0  0  0  0  0  0  0  0
   28.2855   25.1716   10.4459 H   0  0  0  0  0  0  0  0  0  0  0  0
   27.2920   27.0456   11.7413 H   0  0  0  0  0  0  0  0  0  0  0  0
   27.8477   24.7970   15.3911 H   0  0  0  0  0  0  0  0  0  0  0  0
   28.8383   22.9212   14.0854 H   0  0  0  0  0  0  0  0  0  0  0  0
   27.6342   21.5742   11.4579 H   0  0  0  0  0  0  0  0  0  0  0  0
   27.5472   22.7163   10.0742 H   0  0  0  0  0  0  0  0  0  0  0  0
   28.7658   21.3967   10.0742 H   0  0  0  0  0  0  0  0  0  0  0  0
  2  1  1  0
  3  2  1  0
  4  3  2  0
  5  3  1  0
  6  5  1  0
  7  1  1  0
  7  6  2  0
  8  7  1  0
  9  8  1  0
 10  9  2  0
 10  6  1  0
 11  8  1  0
 12 11  2  0
 13 12  1  0
 14 13  2  0
 15 14  1  0
 16 15  2  0
 16 11  1  0
 17 15  1  0
 19 18  2  0
 20 19  1  0
 21  1  1  0
 21 20  2  0
 22 21  1  0
 23 22  2  0
 23 18  1  0
 25 24  1  0
 25 18  1  0
 26 10  1  0
 27 26  2  0
 28 26  1  0
  1 29  1  6
  2 30  1  0
  2 31  1  0
  5 32  1  0
  9 33  1  0
 12 34  1  0
 13 35  1  0
 14 36  1  0
 16 37  1  0
 19 38  1  0
 20 39  1  0
 22 40  1  0
 23 41  1  0
 24 42  1  0
 24 43  1  0
 24 44  1  0
M  CHG  1  28  -1
M  END
$$$$
=
     RDKit          3D

 60 60  0  0  0  0  0  0  0  0999 V2000
   25.9580   26.8820   14.3270 C   0  0  2  0  0  0  0  0  0  0  0  0
   26.6330   26.5770   15.6810 C   0  0  0  0  0  0  0  0  0  0  0  0
   26.0650   25.8750   16.5230 O   0  0  0  0  0  0  0  0  0  0  0  0
   27.8760   27.1200   15.8500 N   0  0  0  0  0  0  0  0  0  0  0  0
   28.6020   27.1290   17.1420 C   0  0  2  0  0  0  0  0  0  0  0  0
   28.3860   28.4980   17.8840 C   0  0  0  0  0  0  0  0  0  0  0  0
   27.6310   28.4030   18.9040 O   0  0  0  0  0  0  0  0  0  0  0  0
   28.9770   29.5010   17.4010 O   0  0  0  0  0  1  0  0  0  0  0  0
   30.1120   26.8420   16.9860 C   0  0  0  0  0  0  0  0  0  0  0  0
   30.6020   27.0000   15.5430 C   0  0  0  0  0  0  0  0  0  0  0  0
   30.4940   25.4550   17.5090 C   0  0  0  0  0  0  0  0  0  0  0  0
   25.0730   25.7320   14.0760 N   0  0  0  0  0  0  0  0  0  0  0  0
   23.7160   25.8340   13.9400 C   0  0  0  0  0  0  0  0  0  0  0  0
   23.1140   26.9080   13.9190 O   0  0  0  0  0  0  0  0  0  0  0  0
   22.9740   24.4890   13.7760 C   0  0  1  0  0  0  0  0  0  0  0  0
   21.9510   24.4370   14.8200 N   0  0  0  0  0  0  0  0  0  0  0  0
   21.9050   23.4410   15.7850 C   0  0  0  0  0  0  0  0  0  0  0  0
   22.6330   22.4480   15.7280 O   0  0  0  0  0  0  0  0  0  0  0  0
   20.8540   23.6610   16.8950 C   0  0  0  0  0  0  0  0  0  0  0  0
   20.7600   22.5940   17.7380 F   0  0  0  0  0  0  0  0  0  0  0  0
   21.1210   24.7460   17.6700 F   0  0  0  0  0  0  0  0  0  0  0  0
   19.5990   23.8520   16.3870 F   0  0  0  0  0  0  0  0  0  0  0  0
   22.3860   24.3340   12.3530 C   0  0  0  0  0  0  0  0  0  0  0  0
   23.4760   24.0420   11.3190 C   0  0  0  0  0  0  0  0  0  0  0  0
   21.2930   23.2630   12.2740 C   0  0  0  0  0  0  0  0  0  0  0  0
   27.0040   27.0410   13.2090 C   0  0  0  0  0  0  0  0  0  0  0  0
   28.2470   23.2770   11.5180 C   0  0  0  0  0  0  0  0  0  0  0  0
   28.8890   23.7710   12.6480 C   0  0  0  0  0  0  0  0  0  0  0  0
   28.4840   24.9920   13.1900 C   0  0  0  0  0  0  0  0  0  0  0  0
   27.4390   25.7230   12.6060 C   0  0  0  0  0  0  0  0  0  0  0  0
   26.8030   25.2060   11.4710 C   0  0  0  0  0  0  0  0  0  0  0  0
   27.2090   23.9850   10.9270 C   0  0  0  0  0  0  0  0  0  0  0  0
   28.6130   22.0870   10.9600 O   0  0  0  0  0  0  0  0  0  0  0  0
   25.3995   27.8294   14.3481 H   0  0  0  0  0  0  0  0  0  0  0  0
   28.3343   27.5474   15.0326 H   0  0  0  0  0  0  0  0  0  0  0  0
   28.1804   26.3113   17.7450 H   0  0  0  0  0  0  0  0  0  0  0  0
   30.6149   27.6027   17.6013 H   0  0  0  0  0  0  0  0  0  0  0  0
   31.6489   27.3376   15.5462 H   0  0  0  0  0  0  0  0  0  0  0  0
   30.5301   26.0331   15.0234 H   0  0  0  0  0  0  0  0  0  0  0  0
   29.9788   27.7427   15.0234 H   0  0  0  0  0  0  0  0  0  0  0  0
   30.4914   25.4644   18.6090 H   0  0  0  0  0  0  0  0  0  0  0  0
   29.7666   24.7135   17.1469 H   0  0  0  0  0  0  0  0  0  0  0  0
   31.4984   25.1904   17.1469 H   0  0  0  0  0  0  0  0  0  0  0  0
   25.5002   24.7980   13.9985 H   0  0  0  0  0  0  0  0  0  0  0  0
   23.6652   23.6411   13.8909 H   0  0  0  0  0  0  0  0  0  0  0  0
   21.2315   25.1737   14.8398 H   0  0  0  0  0  0  0  0  0  0  0  0
   21.9212   25.3026   12.1169 H   0  0  0  0  0  0  0  0  0  0  0  0
   24.4139   23.7907   11.8359 H   0  0  0  0  0  0  0  0  0  0  0  0
   23.1663   23.1951   10.6890 H   0  0  0  0  0  0  0  0  0  0  0  0
   23.6312   24.9303   10.6890 H   0  0  0  0  0  0  0  0  0  0  0  0
   20.9933   22.9693   13.2908 H   0  0  0  0  0  0  0  0  0  0  0  0
   20.4220   23.6669   11.7372 H   0  0  0  0  0  0  0  0  0  0  0  0
   21.6791   22.3839   11.7372 H   0  0  0  0  0  0  0  0  0  0  0  0
   26.5717   27.6640   12.4121 H   0  0  0  0  0  0  0  0  0  0  0  0
   27.8947   27.5038   13.6589 H   0  0  0  0  0  0  0  0  0  0  0  0
   29.7098   23.2040   13.1114 H   0  0  0  0  0  0  0  0  0  0  0  0
   28.9896   25.3850   14.0844 H   0  0  0  0  0  0  0  0  0  0  0  0
   25.9783   25.7648   11.0046 H   0  0  0  0  0  0  0  0  0  0  0  0
   26.7078   23.5856   10.0330 H   0  0  0  0  0  0  0  0  0  0  0  0
   28.1434   21.7524   10.1553 H   0  0  0  0  0  0  0  0  0  0  0  0
  2  1  1  0
  3  2  2  0
  4  2  1  0
  5  4  1  0
  6  5  1  0
  7  6  2  0
  8  6  1  0
  9  5  1  0
 10  9  1  0
 11  9  1  0
 12  1  1  0
 13 12  1  0
 14 13  2  0
 15 13  1  0
 16 15  1  0
 17 16  1  0
 18 17  2  0
 19 17  1  0
 20 19  1  0
 21 19  1  0
 22 19  1  0
 23 15  1  0
 24 23  1  0
 25 23  1  0
 26  1  1  0
 28 27  2  0
 29 28  1  0
 30 26  1  0
 30 29  2  0
 31 30  1  0
 32 31  2  0
 32 27  1  0
 33 27  1  0
  1 34  1  1
  4 35  1  0
  5 36  1  1
  9 37  1  0
 10 38  1  0
 10 39  1  0
 10 40  1  0
 11 41  1  0
 11 42  1  0
 11 43  1  0
 12 44  1  0
 15 45  1  1
 16 46  1  0
 23 47  1  0
 24 48  1  0
 24 49  1  0
 24 50  1  0
 25 51  1  0
 25 52  1  0
 25 53  1  0
 26 54  1  0
 26 55  1  0
 28 56  1  0
 29 57  1  0
 31 58  1  0
 32 59  1  0
 33 60  1  0
M  CHG  1   8  -1
M  END
$$$$
=
     RDKit          3D

 32 34  0  0  0  0  0  0  0  0999 V2000
   18.1210   15.0930    4.4420 C   0  0  0  0  0  0  0  0  0  0  0  0
   18.3210   13.9880    3.6860 N   0  0  0  0  0  0  0  0  0  0  0  0
   17.1880   13.4190    3.2330 C   0  0  0  0  0  0  0  0  0  0  0  0
   17.1940   12.2940    2.4670 O   0  0  0  0  0  0  0  0  0  0  0  0
   15.8980   11.9230    2.1630 N   0  0  0  0  0  0  0  0  0  0  0  0
   15.1120   12.8380    2.7540 C   0  0  0  0  0  0  0  0  0  0  0  0
   15.8770   13.8260    3.4420 C   0  0  0  0  0  0  0  0  0  0  0  0
   15.6830   14.9840    4.2220 C   0  0  0  0  0  0  0  0  0  0  0  0
   16.8510   15.5950    4.7270 C   0  0  0  0  0  0  0  0  0  0  0  0
   13.6420   12.6950    2.6320 C   0  0  0  0  0  0  0  0  0  0  0  0
   21.7280   16.9940    5.8970 C   0  0  0  0  0  0  0  0  0  0  0  0
   20.9960   17.5550    4.8540 C   0  0  0  0  0  0  0  0  0  0  0  0
   19.8290   16.9370    4.3880 C   0  0  0  0  0  0  0  0  0  0  0  0
   19.3580   15.7370    4.9480 C   0  0  0  0  0  0  0  0  0  0  0  0
   20.1080   15.1930    6.0080 C   0  0  0  0  0  0  0  0  0  0  0  0
   21.2780   15.8100    6.4760 C   0  0  0  0  0  0  0  0  0  0  0  0
   23.4580   18.4850    5.2490 C   0  0  0  0  0  0  0  0  0  0  0  0
   22.8480   17.6930    6.2580 O   0  0  0  0  0  0  0  0  0  0  0  0
   14.3420   15.5770    4.5290 C   0  0  0  0  0  0  0  0  0  0  0  0
   13.4580   14.8120    5.0160 O   0  0  0  0  0  0  0  0  0  0  0  0
   14.1910   16.8050    4.2490 O   0  0  0  0  0  1  0  0  0  0  0  0
   16.7575   16.4891    5.3609 H   0  0  0  0  0  0  0  0  0  0  0  0
   13.1933   12.6514    3.6354 H   0  0  0  0  0  0  0  0  0  0  0  0
   13.2338   13.5577    2.0850 H   0  0  0  0  0  0  0  0  0  0  0  0
   13.4077   11.7698    2.0850 H   0  0  0  0  0  0  0  0  0  0  0  0
   21.3377   18.4928    4.3915 H   0  0  0  0  0  0  0  0  0  0  0  0
   19.2676   17.4018    3.5641 H   0  0  0  0  0  0  0  0  0  0  0  0
   19.7680   14.2602    6.4815 H   0  0  0  0  0  0  0  0  0  0  0  0
   21.8425   15.3565    7.3041 H   0  0  0  0  0  0  0  0  0  0  0  0
   24.0650   19.2731    5.7185 H   0  0  0  0  0  0  0  0  0  0  0  0
   24.1023   17.8496    4.6236 H   0  0  0  0  0  0  0  0  0  0  0  0
   22.6791   18.9457    4.6236 H   0  0  0  0  0  0  0  0  0  0  0  0
  2  1  2  0
  3  2  1  0
  4  3  1  0
  5  4  1  0
  6  5  2  0
  7  6  1  0
  7  3  2  0
  8  7  1  0
  9  8  2  0
  9  1  1  0
 10  6  1  0
 12 11  2  0
 13 12  1  0
 14  1  1  0
 14 13  2  0
 15 14  1  0
 16 15  2  0
 16 11  1  0
 18 11  1  0
 18 17  1  0
 19  8  1  0
 20 19  2  0
 21 19  1  0
  9 22  1  0
 10 23  1  0
 10 24  1  0
 10 25  1  0
 12 26  1  0
 13 27  1  0
 15 28  1  0
 16 29  1  0
 17 30  1  0
 17 31  1  0
 17 32  1  0
M  CHG  1  21  -1
M  END
$$$$
=
     RDKit          3D

 35 36  0  0  0  0  0  0  0  0999 V2000
   19.3560   16.0300    3.2720 C   0  0  2  0  0  0  0  0  0  0  0  0
   20.2690   15.6370    4.4620 N   0  0  0  0  0  4  0  0  0  0  0  0
   21.1870   16.7860    4.8370 C   0  0  0  0  0  0  0  0  0  0  0  0
   22.1110   16.3170    5.9690 C   0  0  0  0  0  0  0  0  0  0  0  0
   21.3730   15.8690    7.1150 O   0  0  0  0  0  0  0  0  0  0  0  0
   20.4530   14.8160    6.7900 C   0  0  0  0  0  0  0  0  0  0  0  0
   19.4660   15.2380    5.6930 C   0  0  0  0  0  0  0  0  0  0  0  0
   19.9890   17.5940    1.5630 O   0  0  0  0  0  1  0  0  0  0  0  0
   19.5510   17.5020    2.7450 C   0  0  0  0  0  0  0  0  0  0  0  0
   19.0940   18.3840    3.5260 O   0  0  0  0  0  0  0  0  0  0  0  0
   17.9160   15.7220    3.6130 C   0  0  0  0  0  0  0  0  0  0  0  0
   17.2570   14.6320    3.1800 C   0  0  0  0  0  0  0  0  0  0  0  0
   15.8510   14.3210    3.4830 C   0  0  0  0  0  0  0  0  0  0  0  0
   15.0300   15.1700    4.2370 C   0  0  0  0  0  0  0  0  0  0  0  0
   13.7100   14.8150    4.5270 C   0  0  0  0  0  0  0  0  0  0  0  0
   13.1970   13.6020    4.0750 C   0  0  0  0  0  0  0  0  0  0  0  0
   14.0050   12.7420    3.3350 C   0  0  0  0  0  0  0  0  0  0  0  0
   15.3250   13.0970    3.0450 C   0  0  0  0  0  0  0  0  0  0  0  0
   19.6675   15.4112    2.4176 H   0  0  0  0  0  0  0  0  0  0  0  0
   20.8227   14.8264    4.1502 H   0  0  0  0  0  0  0  0  0  0  0  0
   21.7884   17.0812    3.9645 H   0  0  0  0  0  0  0  0  0  0  0  0
   20.5941   17.6518    5.1668 H   0  0  0  0  0  0  0  0  0  0  0  0
   22.7318   15.4873    5.5999 H   0  0  0  0  0  0  0  0  0  0  0  0
   22.7311   17.1716    6.2773 H   0  0  0  0  0  0  0  0  0  0  0  0
   21.0218   13.9420    6.4398 H   0  0  0  0  0  0  0  0  0  0  0  0
   19.8754   14.5760    7.6949 H   0  0  0  0  0  0  0  0  0  0  0  0
   18.8660   16.0923    6.0398 H   0  0  0  0  0  0  0  0  0  0  0  0
   18.7863   14.4074    5.4519 H   0  0  0  0  0  0  0  0  0  0  0  0
   17.3738   16.4324    4.2543 H   0  0  0  0  0  0  0  0  0  0  0  0
   17.8112   13.9191    2.5518 H   0  0  0  0  0  0  0  0  0  0  0  0
   15.4291   16.1268    4.6048 H   0  0  0  0  0  0  0  0  0  0  0  0
   13.0749   15.4951    5.1135 H   0  0  0  0  0  0  0  0  0  0  0  0
   12.1571   13.3239    4.3016 H   0  0  0  0  0  0  0  0  0  0  0  0
   13.6034   11.7820    2.9784 H   0  0  0  0  0  0  0  0  0  0  0  0
   15.9587   12.4086    2.4666 H   0  0  0  0  0  0  0  0  0  0  0  0
  2  1  1  0
  3  2  1  0
  4  3  1  0
  5  4  1  0
  6  5  1  0
  7  2  1  0
  7  6  1  0
  9  1  1  0
  9  8  1  0
 10  9  2  0
 11  1  1  0
 12 11  2  0
 13 12  1  0
 14 13  2  0
 15 14  1  0
 16 15  2  0
 17 16  1  0
 18 17  2  0
 18 13  1  0
  1 19  1  6
  2 20  1  0
  3 21  1  0
  3 22  1  0
  4 23  1  0
  4 24  1  0
  6 25  1  0
  6 26  1  0
  7 27  1  0
  7 28  1  0
 11 29  1  0
 12 30  1  0
 14 31  1  0
 15 32  1  0
 16 33  1  0
 17 34  1  0
 18 35  1  0
M  CHG  2   2   1   8  -1
M  END
$$$$
=
     RDKit          3D

 25 26  0  0  0  0  0  0  0  0999 V2000
   14.2520   13.7620    3.7540 C   0  0  0  0  0  0  0  0  0  0  0  0
   14.1590   14.7600    4.7260 C   0  0  0  0  0  0  0  0  0  0  0  0
   15.2890   15.5020    5.0890 C   0  0  0  0  0  0  0  0  0  0  0  0
   16.5300   15.2680    4.4800 C   0  0  0  0  0  0  0  0  0  0  0  0
   16.6100   14.2730    3.4960 C   0  0  0  0  0  0  0  0  0  0  0  0
   15.4810   13.5310    3.1310 C   0  0  0  0  0  0  0  0  0  0  0  0
   17.7330   16.0200    4.8640 C   0  0  0  0  0  0  0  0  0  0  0  0
   17.8210   17.3030    5.3760 C   0  0  0  0  0  0  0  0  0  0  0  0
   19.1630   17.6970    5.6420 C   0  0  0  0  0  0  0  0  0  0  0  0
   20.0640   16.7010    5.3330 C   0  0  0  0  0  0  0  0  0  0  0  0
   19.2920   15.3060    4.7350 S   0  0  0  0  0  0  0  0  0  0  0  0
   21.6310   16.8580    5.5220 C   0  0  0  0  0  0  0  0  0  0  0  0
   22.0940   16.5030    6.6510 O   0  0  0  0  0  0  0  0  0  0  0  0
   22.2910   17.3230    4.5440 O   0  0  0  0  0  1  0  0  0  0  0  0
   11.5240   13.9180    4.0060 C   0  0  0  0  0  0  0  0  0  0  0  0
   12.7960   12.8310    3.3140 S   0  0  0  0  0  0  0  0  0  0  0  0
   13.1922   14.9643    5.2093 H   0  0  0  0  0  0  0  0  0  0  0  0
   15.2022   16.2792    5.8626 H   0  0  0  0  0  0  0  0  0  0  0  0
   17.5732   14.0727    3.0040 H   0  0  0  0  0  0  0  0  0  0  0  0
   15.5617   12.7615    2.3491 H   0  0  0  0  0  0  0  0  0  0  0  0
   16.9488   17.9481    5.5576 H   0  0  0  0  0  0  0  0  0  0  0  0
   19.4470   18.6798    6.0462 H   0  0  0  0  0  0  0  0  0  0  0  0
   11.5677   13.8806    5.1045 H   0  0  0  0  0  0  0  0  0  0  0  0
   11.6992   14.9497    3.6670 H   0  0  0  0  0  0  0  0  0  0  0  0
   10.5323   13.5841    3.6670 H   0  0  0  0  0  0  0  0  0  0  0  0
  2  1  2  0
  3  2  1  0
  4  3  2  0
  5  4  1  0
  6  1  1  0
  6  5  2  0
  7  4  1  0
  8  7  2  0
  9  8  1  0
 10  9  2  0
 11  7  1  0
 11 10  1  0
 12 10  1  0
 13 12  2  0
 14 12  1  0
 16 15  1  0
 16  1  1  0
  2 17  1  0
  3 18  1  0
  5 19  1  0
  6 20  1  0
  8 21  1  0
  9 22  1  0
 15 23  1  0
 15 24  1  0
 15 25  1  0
M  CHG  1  14  -1
M  END
$$$$
=
     RDKit          3D

 32 32  0  0  0  0  0  0  0  0999 V2000
   25.9400   26.7770   13.5320 O   0  0  0  0  0  0  0  0  0  0  0  0
   25.9930   27.1370   14.7020 C   0  0  0  0  0  0  0  0  0  0  0  0
   27.0710   27.7160   15.3230 N   0  0  0  0  0  0  0  0  0  0  0  0
   24.8490   26.9800   15.6120 C   0  0  0  0  0  0  0  0  0  0  0  0
   24.9370   27.3110   16.9710 N   0  0  0  0  0  0  0  0  0  0  0  0
   23.7830   27.0760   17.5540 C   0  0  0  0  0  0  0  0  0  0  0  0
   22.5350   26.4600   16.5540 S   0  0  0  0  0  0  0  0  0  0  0  0
   23.6110   26.5010   15.2200 C   0  0  0  0  0  0  0  0  0  0  0  0
   28.4030   28.0380   14.7360 C   0  0  0  0  0  0  0  0  0  0  0  0
   28.8320   26.8620   13.8260 C   0  0  0  0  0  0  0  0  0  0  0  0
   28.2510   29.2900   13.8380 C   0  0  0  0  0  0  0  0  0  0  0  0
   29.4240   28.2770   15.9210 C   0  0  0  0  0  0  0  0  0  0  0  0
   30.5230   27.1900   15.9910 C   0  0  0  0  0  0  0  0  0  0  0  0
   30.1500   29.6390   15.8190 C   0  0  0  0  0  0  0  0  0  0  0  0
   28.6660   28.2580   17.2880 C   0  0  0  0  0  0  0  0  0  0  0  0
   28.2320   29.3730   17.6960 O   0  0  0  0  0  0  0  0  0  0  0  0
   28.5590   27.1290   17.8470 O   0  0  0  0  0  1  0  0  0  0  0  0
   26.9444   27.9577   16.3162 H   0  0  0  0  0  0  0  0  0  0  0  0
   23.6265   27.2646   18.6264 H   0  0  0  0  0  0  0  0  0  0  0  0
   23.3537   26.1904   14.1966 H   0  0  0  0  0  0  0  0  0  0  0  0
   29.1426   26.0105   14.4493 H   0  0  0  0  0  0  0  0  0  0  0  0
   27.9854   26.5620   13.1910 H   0  0  0  0  0  0  0  0  0  0  0  0
   29.6729   27.1776   13.1910 H   0  0  0  0  0  0  0  0  0  0  0  0
   28.1425   30.1837   14.4701 H   0  0  0  0  0  0  0  0  0  0  0  0
   29.1428   29.3962   13.2029 H   0  0  0  0  0  0  0  0  0  0  0  0
   27.3597   29.1797   13.2029 H   0  0  0  0  0  0  0  0  0  0  0  0
   30.7501   26.9654   17.0436 H   0  0  0  0  0  0  0  0  0  0  0  0
   30.1685   26.2774   15.4896 H   0  0  0  0  0  0  0  0  0  0  0  0
   31.4317   27.5545   15.4896 H   0  0  0  0  0  0  0  0  0  0  0  0
   30.3543   30.0222   16.8297 H   0  0  0  0  0  0  0  0  0  0  0  0
   31.0986   29.5092   15.2774 H   0  0  0  0  0  0  0  0  0  0  0  0
   29.5134   30.3542   15.2774 H   0  0  0  0  0  0  0  0  0  0  0  0
  2  1  2  0
  3  2  1  0
  4  2  1  0
  5  4  1  0
  6  5  2  0
  7  6  1  0
  8  4  2  0
  8  7  1  0
  9  3  1  0
 10  9  1  0
 11  9  1  0
 12  9  1  0
 13 12  1  0
 14 12  1  0
 15 12  1  0
 16 15  2  0
 17 15  1  0
  3 18  1  0
  6 19  1  0
  8 20  1  0
 10 21  1  0
 10 22  1  0
 10 23  1  0
 11 24  1  0
 11 25  1  0
 11 26  1  0
 13 27  1  0
 13 28  1  0
 13 29  1  0
 14 30  1  0
 14 31  1  0
 14 32  1  0
M  CHG  1  17  -1
M  END
$$$$
=
     RDKit          3D

 32 33  0  0  0  0  0  0  0  0999 V2000
   18.5090   14.7290    3.6850 C   0  0  0  0  0  0  0  0  0  0  0  0
   18.7680   13.6380    3.1900 O   0  0  0  0  0  0  0  0  0  0  0  0
   17.2310   15.2210    3.9180 N   0  0  0  0  0  0  0  0  0  0  0  0
   21.4490   18.4910    2.9410 C   0  0  0  0  0  0  0  0  0  0  0  0
   20.8340   17.4050    3.6600 N   0  0  0  0  0  0  0  0  0  0  0  0
   19.8190   16.7240    3.0890 N   0  0  0  0  0  0  0  0  0  0  0  0
   19.5190   15.7590    4.0050 C   0  0  0  0  0  0  0  0  0  0  0  0
   20.2940   15.9400    5.1690 C   0  0  0  0  0  0  0  0  0  0  0  0
   21.1560   16.9790    4.9050 C   0  0  0  0  0  0  0  0  0  0  0  0
   20.1750   15.1680    6.5100 C   0  0  0  0  0  0  0  0  0  0  0  0
   21.1640   15.2740    7.2980 O   0  0  0  0  0  0  0  0  0  0  0  0
   19.0780   14.5750    6.7270 O   0  0  0  0  0  1  0  0  0  0  0  0
   15.9960   14.5840    3.7380 C   0  0  0  0  0  0  0  0  0  0  0  0
   15.8230   13.4180    2.9910 C   0  0  0  0  0  0  0  0  0  0  0  0
   14.5510   12.8460    2.8520 C   0  0  0  0  0  0  0  0  0  0  0  0
   13.4400   13.4430    3.4540 C   0  0  0  0  0  0  0  0  0  0  0  0
   13.6120   14.5980    4.2250 C   0  0  0  0  0  0  0  0  0  0  0  0
   14.8850   15.1610    4.3640 C   0  0  0  0  0  0  0  0  0  0  0  0
   12.1030   12.8180    3.2650 C   0  0  0  0  0  0  0  0  0  0  0  0
   11.0970   13.2430    3.8180 O   0  0  0  0  0  0  0  0  0  0  0  0
   12.0430   11.7030    2.4730 N   0  0  0  0  0  0  0  0  0  0  0  0
   17.1848   16.1872    4.2718 H   0  0  0  0  0  0  0  0  0  0  0  0
   21.8607   19.2179    3.6566 H   0  0  0  0  0  0  0  0  0  0  0  0
   22.2595   18.0996    2.3086 H   0  0  0  0  0  0  0  0  0  0  0  0
   20.6965   18.9848    2.3086 H   0  0  0  0  0  0  0  0  0  0  0  0
   21.9401   17.3790    5.5647 H   0  0  0  0  0  0  0  0  0  0  0  0
   16.6906   12.9447    2.5081 H   0  0  0  0  0  0  0  0  0  0  0  0
   14.4266   11.9231    2.2665 H   0  0  0  0  0  0  0  0  0  0  0  0
   12.7472   15.0627    4.7212 H   0  0  0  0  0  0  0  0  0  0  0  0
   15.0145   16.0681    4.9726 H   0  0  0  0  0  0  0  0  0  0  0  0
   11.1403   11.2340    2.3115 H   0  0  0  0  0  0  0  0  0  0  0  0
   12.9005   11.3331    2.0386 H   0  0  0  0  0  0  0  0  0  0  0  0
  2  1  2  0
  3  1  1  0
  5  4  1  0
  6  5  1  0
  7  1  1  0
  7  6  2  0
  8  7  1  0
  9  8  2  0
  9  5  1  0
 10  8  1  0
 11 10  2  0
 12 10  1  0
 13  3  1  0
 14 13  2  0
 15 14  1  0
 16 15  2  0
 17 16  1  0
 18 17  2  0
 18 13  1  0
 19 16  1  0
 20 19  2  0
 21 19  1  0
  3 22  1  0
  4 23  1  0
  4 24  1  0
  4 25  1  0
  9 26  1  0
 14 27  1  0
 15 28  1  0
 17 29  1  0
 18 30  1  0
 21 31  1  0
 21 32  1  0
M  CHG  1  12  -1
M  END
$$$$
=
     RDKit          3D

 26 27  0  0  0  0  0  0  0  0999 V2000
   20.5040   16.6420    4.7640 C   0  0  0  0  0  0  0  0  0  0  0  0
   20.2560   16.9790    3.4520 N   0  0  0  0  0  0  0  0  0  0  0  0
   19.4600   16.0560    2.9280 N   0  0  0  0  0  0  0  0  0  0  0  0
   19.2180   15.1410    3.8860 N   0  0  0  0  0  0  0  0  0  0  0  0
   19.8380   15.4610    5.0640 C   0  0  0  0  0  0  0  0  0  0  0  0
   19.7750   14.6790    6.3180 C   0  0  0  0  0  0  0  0  0  0  0  0
   22.2710   16.8520    6.4530 O   0  0  0  0  0  1  0  0  0  0  0  0
   21.4110   17.4880    5.7680 C   0  0  0  0  0  0  0  0  0  0  0  0
   21.2020   18.7430    5.8050 O   0  0  0  0  0  0  0  0  0  0  0  0
   18.3300   14.0300    3.5900 C   0  0  0  0  0  0  0  0  0  0  0  0
   16.8700   14.3700    3.7980 C   0  0  0  0  0  0  0  0  0  0  0  0
   15.8700   13.5260    3.2850 C   0  0  0  0  0  0  0  0  0  0  0  0
   14.5210   13.8170    3.4960 C   0  0  0  0  0  0  0  0  0  0  0  0
   14.1690   14.9460    4.2260 C   0  0  0  0  0  0  0  0  0  0  0  0
   15.1390   15.7890    4.7510 C   0  0  0  0  0  0  0  0  0  0  0  0
   16.4890   15.5000    4.5410 C   0  0  0  0  0  0  0  0  0  0  0  0
   12.8730   15.2200    4.4300 F   0  0  0  0  0  0  0  0  0  0  0  0
   19.8300   15.3615    7.1789 H   0  0  0  0  0  0  0  0  0  0  0  0
   18.8288   14.1191    6.3538 H   0  0  0  0  0  0  0  0  0  0  0  0
   20.6193   13.9748    6.3538 H   0  0  0  0  0  0  0  0  0  0  0  0
   18.4753   13.7348    2.5404 H   0  0  0  0  0  0  0  0  0  0  0  0
   18.5805   13.2140    4.2838 H   0  0  0  0  0  0  0  0  0  0  0  0
   16.1523   12.6297    2.7132 H   0  0  0  0  0  0  0  0  0  0  0  0
   13.7418   13.1570    3.0871 H   0  0  0  0  0  0  0  0  0  0  0  0
   14.8463   16.6784    5.3284 H   0  0  0  0  0  0  0  0  0  0  0  0
   17.2604   16.1624    4.9607 H   0  0  0  0  0  0  0  0  0  0  0  0
  2  1  1  0
  3  2  2  0
  4  3  1  0
  5  4  1  0
  5  1  2  0
  6  5  1  0
  8  1  1  0
  8  7  1  0
  9  8  2  0
 10  4  1  0
 11 10  1  0
 12 11  2  0
 13 12  1  0
 14 13  2  0
 15 14  1  0
 16 15  2  0
 16 11  1  0
 17 14  1  0
  6 18  1  0
  6 19  1  0
  6 20  1  0
 10 21  1  0
 10 22  1  0
 12 23  1  0
 13 24  1  0
 15 25  1  0
 16 26  1  0
M  CHG  1   7  -1
M  END
$$$$
=
     RDKit          3D

 50 53  0  0  0  0  0  0  0  0999 V2000
   25.1850   26.2790   16.8040 O   0  0  0  0  0  0  0  0  0  0  0  0
   25.3610   27.2420   16.0720 C   0  0  0  0  0  0  0  0  0  0  0  0
   24.8190   27.4320   14.8500 N   0  0  0  0  0  0  0  0  0  0  0  0
   23.7300   26.6320   14.2490 C   0  0  1  0  0  0  0  0  0  0  0  0
   22.3510   27.3410   14.4680 C   0  0  0  0  0  0  0  0  0  0  0  0
   21.6000   26.8690   15.3630 O   0  0  0  0  0  0  0  0  0  0  0  0
   22.1610   28.3370   13.6970 O   0  0  0  0  0  1  0  0  0  0  0  0
   23.9550   26.4170   12.7450 C   0  0  0  0  0  0  0  0  0  0  0  0
   24.8230   25.2150   12.4330 C   0  0  0  0  0  0  0  0  0  0  0  0
   25.0470   24.8260   11.1050 C   0  0  0  0  0  0  0  0  0  0  0  0
   25.8510   23.7230   10.8120 C   0  0  0  0  0  0  0  0  0  0  0  0
   26.4440   22.9980   11.8450 C   0  0  0  0  0  0  0  0  0  0  0  0
   26.2310   23.3890   13.1650 C   0  0  0  0  0  0  0  0  0  0  0  0
   25.4320   24.4880   13.4650 C   0  0  0  0  0  0  0  0  0  0  0  0
   26.7990   22.7030   14.1990 O   0  0  0  0  0  0  0  0  0  0  0  0
   26.1390   28.3110   16.3820 O   0  0  0  0  0  0  0  0  0  0  0  0
   26.6600   29.0390   15.2570 C   0  0  0  0  0  0  0  0  0  0  0  0
   28.1460   28.7320   15.0250 C   0  0  0  0  0  0  0  0  0  0  0  0
   28.8070   28.1230   16.2580 C   0  0  0  0  0  0  0  0  0  0  0  0
   28.9540   28.6850   17.5170 C   0  0  0  0  0  0  0  0  0  0  0  0
   29.6060   27.9390   18.4990 C   0  0  0  0  0  0  0  0  0  0  0  0
   30.1030   26.6550   18.2140 C   0  0  0  0  0  0  0  0  0  0  0  0
   29.9610   26.0990   16.9390 C   0  0  0  0  0  0  0  0  0  0  0  0
   29.3150   26.8400   15.9630 C   0  0  0  0  0  0  0  0  0  0  0  0
   29.0410   26.5350   14.5750 C   0  0  0  0  0  0  0  0  0  0  0  0
   28.3580   27.6250   13.9930 C   0  0  0  0  0  0  0  0  0  0  0  0
   27.9860   27.6130   12.6570 C   0  0  0  0  0  0  0  0  0  0  0  0
   28.2930   26.4840   11.8980 C   0  0  0  0  0  0  0  0  0  0  0  0
   28.9650   25.3920   12.4730 C   0  0  0  0  0  0  0  0  0  0  0  0
   29.3450   25.4130   13.8200 C   0  0  0  0  0  0  0  0  0  0  0  0
   25.1987   28.2048   14.2847 H   0  0  0  0  0  0  0  0  0  0  0  0
   23.7274   25.6510   14.7466 H   0  0  0  0  0  0  0  0  0  0  0  0
   22.9766   26.2754   12.2627 H   0  0  0  0  0  0  0  0  0  0  0  0
   24.4809   27.3052   12.3647 H   0  0  0  0  0  0  0  0  0  0  0  0
   24.5846   25.3957   10.2855 H   0  0  0  0  0  0  0  0  0  0  0  0
   26.0168   23.4257    9.7660 H   0  0  0  0  0  0  0  0  0  0  0  0
   27.0743   22.1251   11.6196 H   0  0  0  0  0  0  0  0  0  0  0  0
   25.2783   24.7863   14.5125 H   0  0  0  0  0  0  0  0  0  0  0  0
   26.6389   22.9923   15.1322 H   0  0  0  0  0  0  0  0  0  0  0  0
   26.0928   28.7592   14.3570 H   0  0  0  0  0  0  0  0  0  0  0  0
   26.5592   30.1142   15.4661 H   0  0  0  0  0  0  0  0  0  0  0  0
   28.5633   29.7048   14.7259 H   0  0  0  0  0  0  0  0  0  0  0  0
   28.5672   29.6913   17.7354 H   0  0  0  0  0  0  0  0  0  0  0  0
   29.7327   28.3599   19.5074 H   0  0  0  0  0  0  0  0  0  0  0  0
   30.6097   26.0809   19.0037 H   0  0  0  0  0  0  0  0  0  0  0  0
   30.3534   25.0959   16.7160 H   0  0  0  0  0  0  0  0  0  0  0  0
   27.4631   28.4705   12.2083 H   0  0  0  0  0  0  0  0  0  0  0  0
   28.0057   26.4479   10.8368 H   0  0  0  0  0  0  0  0  0  0  0  0
   29.1952   24.5101   11.8571 H   0  0  0  0  0  0  0  0  0  0  0  0
   29.8728   24.5587   14.2691 H   0  0  0  0  0  0  0  0  0  0  0  0
  2  1  2  0
  3  2  1  0
  4  3  1  0
  5  4  1  0
  6  5  2  0
  7  5  1  0
  8  4  1  0
  9  8  1  0
 10  9  2  0
 11 10  1  0
 12 11  2  0
 13 12  1  0
 14 13  2  0
 14  9  1  0
 15 13  1  0
 16  2  1  0
 17 16  1  0
 18 17  1  0
 19 18  1  0
 20 19  2  0
 21 20  1  0
 22 21  2  0
 23 22  1  0
 24 23  2  0
 24 19  1  0
 25 24  1  0
 26 25  2  0
 26 18  1  0
 27 26  1  0
 28 27  2  0
 29 28  1  0
 30 29  2  0
 30 25  1  0
  3 31  1  0
  4 32  1  1
  8 33  1  0
  8 34  1  0
 10 35  1  0
 11 36  1  0
 12 37  1  0
 14 38  1  0
 15 39  1  0
 17 40  1  0
 17 41  1  0
 18 42  1  0
 20 43  1  0
 21 44  1  0
 22 45  1  0
 23 46  1  0
 27 47  1  0
 28 48  1  0
 29 49  1  0
 30 50  1  0
M  CHG  1   7  -1
M  END
$$$$
=
     RDKit          3D

 38 40  0  0  0  0  0  0  0  0999 V2000
   15.0820   13.3900    3.4700 C   0  0  0  0  0  0  0  0  0  0  0  0
   14.6010   14.5250    4.1280 C   0  0  0  0  0  0  0  0  0  0  0  0
   13.2300   14.6630    4.3710 C   0  0  0  0  0  0  0  0  0  0  0  0
   12.3260   13.6800    3.9410 C   0  0  0  0  0  0  0  0  0  0  0  0
   12.8200   12.5680    3.2400 C   0  0  0  0  0  0  0  0  0  0  0  0
   14.1900   12.4230    3.0010 C   0  0  0  0  0  0  0  0  0  0  0  0
   17.7780   16.5290    4.3630 C   0  0  1  0  0  0  0  0  0  0  0  0
   19.1000   16.4570    3.7560 O   0  0  0  0  0  0  0  0  0  0  0  0
   19.6950   15.1670    3.9100 C   0  0  0  0  0  0  0  0  0  0  0  0
   18.8160   14.0920    3.2580 C   0  0  0  0  0  0  0  0  0  0  0  0
   17.4140   14.1880    3.6610 N   0  0  0  0  0  0  0  0  0  0  0  0
   17.1560   15.1730    4.7240 C   0  0  0  0  0  0  0  0  0  0  0  0
   16.5260   13.2360    3.1850 C   0  0  0  0  0  0  0  0  0  0  0  0
   16.8720   12.2650    2.5120 O   0  0  0  0  0  0  0  0  0  0  0  0
   18.6190   18.2320    5.8250 O   0  0  0  0  0  1  0  0  0  0  0  0
   17.7850   17.2870    5.7120 C   0  0  0  0  0  0  0  0  0  0  0  0
   16.9830   16.8250    6.5780 O   0  0  0  0  0  0  0  0  0  0  0  0
   10.8910   13.7880    4.1900 C   0  0  0  0  0  0  0  0  0  0  0  0
    9.9230   13.7670    3.2040 C   0  0  0  0  0  0  0  0  0  0  0  0
    8.3630   13.9300    3.8990 S   0  0  0  0  0  0  0  0  0  0  0  0
    9.0840   14.0370    5.4540 C   0  0  0  0  0  0  0  0  0  0  0  0
   10.3970   13.9550    5.4780 N   0  0  0  0  0  0  0  0  0  0  0  0
    8.2320   14.2140    6.6590 C   0  0  0  0  0  0  0  0  0  0  0  0
   15.2996   15.3094    4.4547 H   0  0  0  0  0  0  0  0  0  0  0  0
   12.8576   15.5502    4.9040 H   0  0  0  0  0  0  0  0  0  0  0  0
   12.1206   11.8017    2.8745 H   0  0  0  0  0  0  0  0  0  0  0  0
   14.5640   11.5503    2.4455 H   0  0  0  0  0  0  0  0  0  0  0  0
   17.1996   17.0344    3.5756 H   0  0  0  0  0  0  0  0  0  0  0  0
   20.6853   15.1650    3.4312 H   0  0  0  0  0  0  0  0  0  0  0  0
   19.7937   14.9451    4.9829 H   0  0  0  0  0  0  0  0  0  0  0  0
   18.8764   14.2033    2.1653 H   0  0  0  0  0  0  0  0  0  0  0  0
   19.1901   13.1118    3.5886 H   0  0  0  0  0  0  0  0  0  0  0  0
   16.0699   15.2947    4.8489 H   0  0  0  0  0  0  0  0  0  0  0  0
   17.6074   14.8125    5.6601 H   0  0  0  0  0  0  0  0  0  0  0  0
   10.1239   13.6610    2.1277 H   0  0  0  0  0  0  0  0  0  0  0  0
    8.8450   14.0866    7.5634 H   0  0  0  0  0  0  0  0  0  0  0  0
    7.7929   15.2225    6.6527 H   0  0  0  0  0  0  0  0  0  0  0  0
    7.4275   13.4638    6.6527 H   0  0  0  0  0  0  0  0  0  0  0  0
  2  1  2  0
  3  2  1  0
  4  3  2  0
  5  4  1  0
  6  5  2  0
  6  1  1  0
  8  7  1  0
  9  8  1  0
 10  9  1  0
 11 10  1  0
 12 11  1  0
 12  7  1  0
 13  1  1  0
 13 11  1  0
 14 13  2  0
 16  7  1  0
 16 15  1  0
 17 16  2  0
 18  4  1  0
 19 18  2  0
 20 19  1  0
 21 20  1  0
 22 18  1  0
 22 21  2  0
 23 21  1  0
  2 24  1  0
  3 25  1  0
  5 26  1  0
  6 27  1  0
  7 28  1  6
  9 29  1  0
  9 30  1  0
 10 31  1  0
 10 32  1  0
 12 33  1  0
 12 34  1  0
 19 35  1  0
 23 36  1  0
 23 37  1  0
 23 38  1  0
M  CHG  1  15  -1
M  END
$$$$
=
     RDKit          3D

 47 49  0  0  0  0  0  0  0  0999 V2000
   24.5820   25.9360   13.8040 N   0  0  0  0  0  0  0  0  0  0  0  0
   23.3310   26.7320   13.9940 C   0  0  2  0  0  0  0  0  0  0  0  0
   22.2870   26.0690   14.8800 C   0  0  0  0  0  0  0  0  0  0  0  0
   20.9230   27.2170   14.7760 S   0  0  0  0  0  6  0  0  0  0  0  0
   19.6820   26.4890   14.6170 O   0  0  0  0  0  0  0  0  0  0  0  0
   21.0840   28.2000   15.8330 O   0  0  0  0  0  0  0  0  0  0  0  0
   21.3820   27.9920   13.2270 C   0  0  0  0  0  0  0  0  0  0  0  0
   22.5850   27.1940   12.7270 C   0  0  2  0  0  0  0  0  0  0  0  0
   22.0780   26.1020   11.9680 O   0  0  0  0  0  0  0  0  0  0  0  0
   27.1790   27.3590   16.0690 C   0  0  0  0  0  0  0  0  0  0  0  0
   28.0820   27.8890   15.1510 C   0  0  0  0  0  0  0  0  0  0  0  0
   27.8270   27.7590   13.7840 C   0  0  0  0  0  0  0  0  0  0  0  0
   26.6780   27.0980   13.3480 C   0  0  0  0  0  0  0  0  0  0  0  0
   25.7930   26.5490   14.2780 C   0  0  0  0  0  0  0  0  0  0  0  0
   26.0320   26.6950   15.6460 C   0  0  0  0  0  0  0  0  0  0  0  0
   27.3860   27.4790   17.4120 O   0  0  0  0  0  0  0  0  0  0  0  0
   24.6300   24.2420   13.5890 S   0  0  0  0  0  6  0  0  0  0  0  0
   24.4970   23.5850   14.8760 O   0  0  0  0  0  0  0  0  0  0  0  0
   23.7120   23.9190   12.5150 O   0  0  0  0  0  0  0  0  0  0  0  0
   26.2980   23.8860   13.0590 C   0  0  0  0  0  0  0  0  0  0  0  0
   27.2770   23.7380   14.0510 C   0  0  0  0  0  0  0  0  0  0  0  0
   28.6380   23.6570   13.7240 C   0  0  0  0  0  0  0  0  0  0  0  0
   28.9920   23.6180   12.3720 C   0  0  0  0  0  0  0  0  0  0  0  0
   28.0130   23.6940   11.3740 C   0  0  0  0  0  0  0  0  0  0  0  0
   26.6530   23.8330   11.7000 C   0  0  0  0  0  0  0  0  0  0  0  0
   25.6540   23.9530   10.5850 C   0  0  0  0  0  0  0  0  0  0  0  0
   29.6790   23.6840   14.8200 C   0  0  0  0  0  0  0  0  0  0  0  0
   30.7930   23.1330   14.5470 O   0  0  0  0  0  0  0  0  0  0  0  0
   29.3470   24.2100   15.9250 O   0  0  0  0  0  1  0  0  0  0  0  0
   23.7717   27.6156   14.4788 H   0  0  0  0  0  0  0  0  0  0  0  0
   22.0056   25.0787   14.4927 H   0  0  0  0  0  0  0  0  0  0  0  0
   22.6322   25.8843   15.9080 H   0  0  0  0  0  0  0  0  0  0  0  0
   20.5534   27.9351   12.5057 H   0  0  0  0  0  0  0  0  0  0  0  0
   21.6173   29.0592   13.3526 H   0  0  0  0  0  0  0  0  0  0  0  0
   23.2733   27.7624   12.0842 H   0  0  0  0  0  0  0  0  0  0  0  0
   21.7508   25.3973   12.5816 H   0  0  0  0  0  0  0  0  0  0  0  0
   28.9884   28.4057   15.4995 H   0  0  0  0  0  0  0  0  0  0  0  0
   28.5321   28.1778   13.0509 H   0  0  0  0  0  0  0  0  0  0  0  0
   26.4695   27.0095   12.2716 H   0  0  0  0  0  0  0  0  0  0  0  0
   25.3212   26.2895   16.3811 H   0  0  0  0  0  0  0  0  0  0  0  0
   26.7329   27.0957   18.0497 H   0  0  0  0  0  0  0  0  0  0  0  0
   26.9717   23.6844   15.1064 H   0  0  0  0  0  0  0  0  0  0  0  0
   30.0511   23.5266   12.0893 H   0  0  0  0  0  0  0  0  0  0  0  0
   28.3133   23.6441   10.3170 H   0  0  0  0  0  0  0  0  0  0  0  0
   24.6457   24.0741   11.0076 H   0  0  0  0  0  0  0  0  0  0  0  0
   25.8994   24.8281    9.9654 H   0  0  0  0  0  0  0  0  0  0  0  0
   25.6852   23.0446    9.9654 H   0  0  0  0  0  0  0  0  0  0  0  0
  2  1  1  0
  3  2  1  0
  4  3  1  0
  5  4  2  0
  6  4  2  0
  7  4  1  0
  8  7  1  0
  8  2  1  0
  9  8  1  0
 11 10  2  0
 12 11  1  0
 13 12  2  0
 14 13  1  0
 14  1  1  0
 15 14  2  0
 15 10  1  0
 16 10  1  0
 17  1  1  0
 18 17  2  0
 19 17  2  0
 20 17  1  0
 21 20  2  0
 22 21  1  0
 23 22  2  0
 24 23  1  0
 25 20  1  0
 25 24  2  0
 26 25  1  0
 27 22  1  0
 28 27  2  0
 29 27  1  0
  2 30  1  1
  3 31  1  0
  3 32  1  0
  7 33  1  0
  7 34  1  0
  8 35  1  6
  9 36  1  0
 11 37  1  0
 12 38  1  0
 13 39  1  0
 15 40  1  0
 16 41  1  0
 21 42  1  0
 23 43  1  0
 24 44  1  0
 26 45  1  0
 26 46  1  0
 26 47  1  0
M  CHG  1  29  -1
M  END
$$$$
=
     RDKit          3D

 33 34  0  0  0  0  0  0  0  0999 V2000
   16.7670   14.5490    3.5750 C   0  0  0  0  0  0  0  0  0  0  0  0
   15.8550   13.3810    3.2540 C   0  0  0  0  0  0  0  0  0  0  0  0
   16.3110   12.3050    2.8530 O   0  0  0  0  0  0  0  0  0  0  0  0
   10.0690   13.6880    3.8170 C   0  0  0  0  0  0  0  0  0  0  0  0
   11.5610   13.5990    3.7080 C   0  0  0  0  0  0  0  0  0  0  0  0
   12.1600   12.6230    2.9060 C   0  0  0  0  0  0  0  0  0  0  0  0
   13.5520   12.5710    2.7790 C   0  0  0  0  0  0  0  0  0  0  0  0
   14.3720   13.4960    3.4440 C   0  0  0  0  0  0  0  0  0  0  0  0
   13.7680   14.4770    4.2340 C   0  0  0  0  0  0  0  0  0  0  0  0
   12.3750   14.5310    4.3590 C   0  0  0  0  0  0  0  0  0  0  0  0
   18.5170   14.0470    3.5900 S   0  0  0  0  0  0  0  0  0  0  0  0
   19.3020   15.6180    3.9460 C   0  0  0  0  0  0  0  0  0  0  0  0
   19.4170   16.5080    2.8620 C   0  0  0  0  0  0  0  0  0  0  0  0
   20.0530   17.7430    3.0030 C   0  0  0  0  0  0  0  0  0  0  0  0
   20.6020   18.1000    4.2270 C   0  0  0  0  0  0  0  0  0  0  0  0
   20.5050   17.2240    5.3070 C   0  0  0  0  0  0  0  0  0  0  0  0
   19.8510   15.9790    5.1880 C   0  0  0  0  0  0  0  0  0  0  0  0
   19.7740   15.1230    6.4200 C   0  0  0  0  0  0  0  0  0  0  0  0
   20.8750   14.6840    6.8790 O   0  0  0  0  0  0  0  0  0  0  0  0
   18.6290   14.9750    6.9490 O   0  0  0  0  0  1  0  0  0  0  0  0
   16.6264   15.3314    2.8147 H   0  0  0  0  0  0  0  0  0  0  0  0
   16.5075   14.9236    4.5762 H   0  0  0  0  0  0  0  0  0  0  0  0
    9.7793   13.7053    4.8780 H   0  0  0  0  0  0  0  0  0  0  0  0
    9.7198   14.6086    3.3265 H   0  0  0  0  0  0  0  0  0  0  0  0
    9.6128   12.8155    3.3265 H   0  0  0  0  0  0  0  0  0  0  0  0
   11.5338   11.8927    2.3725 H   0  0  0  0  0  0  0  0  0  0  0  0
   14.0105   11.7944    2.1492 H   0  0  0  0  0  0  0  0  0  0  0  0
   14.3921   15.2129    4.7621 H   0  0  0  0  0  0  0  0  0  0  0  0
   11.9150   15.3162    4.9769 H   0  0  0  0  0  0  0  0  0  0  0  0
   18.9979   16.2254    1.8850 H   0  0  0  0  0  0  0  0  0  0  0  0
   20.1188   18.4308    2.1470 H   0  0  0  0  0  0  0  0  0  0  0  0
   21.1105   19.0684    4.3440 H   0  0  0  0  0  0  0  0  0  0  0  0
   20.9477   17.5092    6.2727 H   0  0  0  0  0  0  0  0  0  0  0  0
  2  1  1  0
  3  2  2  0
  5  4  1  0
  6  5  2  0
  7  6  1  0
  8  7  2  0
  8  2  1  0
  9  8  1  0
 10  9  2  0
 10  5  1  0
 11  1  1  0
 12 11  1  0
 13 12  2  0
 14 13  1  0
 15 14  2  0
 16 15  1  0
 17 12  1  0
 17 16  2  0
 18 17  1  0
 19 18  2  0
 20 18  1  0
  1 21  1  0
  1 22  1  0
  4 23  1  0
  4 24  1  0
  4 25  1  0
  6 26  1  0
  7 27  1  0
  9 28  1  0
 10 29  1  0
 13 30  1  0
 14 31  1  0
 15 32  1  0
 16 33  1  0
M  CHG  1  20  -1
M  END
$$$$
=
     RDKit          3D

 49 52  0  0  0  0  0  0  0  0999 V2000
   17.4550   15.2560    4.2180 N   0  0  0  0  0  0  0  0  0  0  0  0
   16.1230   15.5260    4.4750 C   0  0  0  0  0  0  0  0  0  0  0  0
   15.5770   16.4370    5.0710 O   0  0  0  0  0  0  0  0  0  0  0  0
   15.3390   14.4510    3.8750 C   0  0  0  0  0  0  0  0  0  0  0  0
   16.2160   13.5740    3.2820 C   0  0  0  0  0  0  0  0  0  0  0  0
   17.5670   14.0790    3.5010 C   0  0  0  0  0  0  0  0  0  0  0  0
   18.5340   13.4690    3.0790 O   0  0  0  0  0  0  0  0  0  0  0  0
   15.7800   12.4390    2.6270 C   0  0  0  0  0  0  0  0  0  0  0  0
   14.3990   12.2070    2.5840 C   0  0  0  0  0  0  0  0  0  0  0  0
   13.4870   13.1110    3.1850 C   0  0  0  0  0  0  0  0  0  0  0  0
   13.9700   14.2500    3.8510 C   0  0  0  0  0  0  0  0  0  0  0  0
   20.7540   17.6900    5.4780 C   0  0  0  0  0  0  0  0  0  0  0  0
   20.5130   16.4580    6.0740 C   0  0  0  0  0  0  0  0  0  0  0  0
   19.4310   15.6650    5.6580 C   0  0  0  0  0  0  0  0  0  0  0  0
   18.5550   16.0720    4.6380 C   0  0  0  0  0  0  0  0  0  0  0  0
   18.8150   17.3210    4.0550 C   0  0  0  0  0  0  0  0  0  0  0  0
   19.8950   18.1150    4.4690 C   0  0  0  0  0  0  0  0  0  0  0  0
   21.7580   18.5620    5.7810 O   0  0  0  0  0  0  0  0  0  0  0  0
   24.0510   18.8250    5.0330 C   0  0  0  0  0  0  0  0  0  0  0  0
   23.0860   18.0600    5.9240 C   0  0  0  0  0  0  0  0  0  0  0  0
   12.0070   12.8910    3.1690 C   0  0  0  0  0  0  0  0  0  0  0  0
   11.5740   11.9020    2.5820 O   0  0  0  0  0  0  0  0  0  0  0  0
   11.2670   13.8290    3.8410 N   0  0  0  0  0  0  0  0  0  0  0  0
    9.8920   13.8830    3.9490 C   0  0  0  0  0  0  0  0  0  0  0  0
    8.9310   13.9560    2.9740 C   0  0  0  0  0  0  0  0  0  0  0  0
    7.7390   13.9830    3.6330 N   0  0  0  0  0  0  0  0  0  0  0  0
    7.8440   13.9380    4.9730 N   0  0  0  0  0  0  0  0  0  0  0  0
    9.1750   13.8790    5.1800 C   0  0  0  0  0  0  0  0  0  0  0  0
    6.4280   14.0540    3.0380 C   0  0  0  0  0  0  0  0  0  0  0  0
    9.9720   13.8180    6.5900 C   0  0  0  0  0  0  0  0  0  0  0  0
   11.1250   13.2860    6.6230 O   0  0  0  0  0  0  0  0  0  0  0  0
    9.3450   14.3280    7.5870 O   0  0  0  0  0  1  0  0  0  0  0  0
   16.4904   11.7432    2.1567 H   0  0  0  0  0  0  0  0  0  0  0  0
   14.0163   11.3095    2.0760 H   0  0  0  0  0  0  0  0  0  0  0  0
   13.2829   14.9583    4.3371 H   0  0  0  0  0  0  0  0  0  0  0  0
   21.1744   16.1013    6.8773 H   0  0  0  0  0  0  0  0  0  0  0  0
   19.2641   14.6938    6.1467 H   0  0  0  0  0  0  0  0  0  0  0  0
   18.1561   17.6868    3.2537 H   0  0  0  0  0  0  0  0  0  0  0  0
   20.0656   19.0895    3.9881 H   0  0  0  0  0  0  0  0  0  0  0  0
   24.7602   19.3872    5.6583 H   0  0  0  0  0  0  0  0  0  0  0  0
   24.6035   18.1169    4.3980 H   0  0  0  0  0  0  0  0  0  0  0  0
   23.4876   19.5245    4.3980 H   0  0  0  0  0  0  0  0  0  0  0  0
   23.4011   18.1671    6.9724 H   0  0  0  0  0  0  0  0  0  0  0  0
   23.0964   17.0008    5.6274 H   0  0  0  0  0  0  0  0  0  0  0  0
   11.7944   14.5747    4.3172 H   0  0  0  0  0  0  0  0  0  0  0  0
    9.0895   13.9864    1.8859 H   0  0  0  0  0  0  0  0  0  0  0  0
    5.6671   14.0952    3.8313 H   0  0  0  0  0  0  0  0  0  0  0  0
    6.3568   14.9573    2.4143 H   0  0  0  0  0  0  0  0  0  0  0  0
    6.2597   13.1637    2.4143 H   0  0  0  0  0  0  0  0  0  0  0  0
  2  1  1  0
  3  2  2  0
  4  2  1  0
  5  4  2  0
  6  5  1  0
  6  1  1  0
  7  6  2  0
  8  5  1  0
  9  8  2  0
 10  9  1  0
 11 10  2  0
 11  4  1  0
 13 12  2  0
 14 13  1  0
 15  1  1  0
 15 14  2  0
 16 15  1  0
 17 16  2  0
 17 12  1  0
 18 12  1  0
 20 18  1  0
 20 19  1  0
 21 10  1  0
 22 21  2  0
 23 21  1  0
 24 23  1  0
 25 24  2  0
 26 25  1  0
 27 26  1  0
 28 27  2  0
 28 24  1  0
 29 26  1  0
 30 28  1  0
 31 30  2  0
 32 30  1  0
  8 33  1  0
  9 34  1  0
 11 35  1  0
 13 36  1  0
 14 37  1  0
 16 38  1  0
 17 39  1  0
 19 40  1  0
 19 41  1  0
 19 42  1  0
 20 43  1  0
 20 44  1  0
 23 45  1  0
 25 46  1  0
 29 47  1  0
 29 48  1  0
 29 49  1  0
M  CHG  1  32  -1
M  END
$$$$
=
     RDKit          3D

 20 19  0  0  0  0  0  0  0  0999 V2000
   17.7220   16.1970    6.0350 C   0  0  0  0  0  0  0  0  0  0  0  0
   18.0010   17.3960    5.4810 C   0  0  0  0  0  0  0  0  0  0  0  0
   19.2950   14.4350    5.6500 O   0  0  0  0  0  0  0  0  0  0  0  0
   18.8080   15.2570    6.4220 C   0  0  0  0  0  0  0  0  0  0  0  0
   19.3130   17.9530    5.2110 C   0  0  0  0  0  0  0  0  0  0  0  0
   20.0350   17.8620    4.0860 C   0  0  0  0  0  0  0  0  0  0  0  0
   19.7260   17.1610    2.6960 C   0  0  0  0  0  0  0  0  0  0  0  0
   19.6640   17.8570    1.6550 O   0  0  0  0  0  0  0  0  0  0  0  0
   19.5970   15.8980    2.8630 O   0  0  0  0  0  1  0  0  0  0  0  0
   21.3010   18.4840    4.0730 O   0  0  0  0  0  0  0  0  0  0  0  0
   16.3260   15.7130    6.3220 C   0  0  0  0  0  0  0  0  0  0  0  0
   15.5920   15.1330    5.1060 C   0  0  0  0  0  0  0  0  0  0  0  0
   16.2240   15.0780    4.0100 O   0  0  0  0  0  0  0  0  0  0  0  0
   14.3930   14.7860    5.3360 O   0  0  0  0  0  1  0  0  0  0  0  0
   17.1382   18.0195    5.2037 H   0  0  0  0  0  0  0  0  0  0  0  0
   19.1943   15.3002    7.4510 H   0  0  0  0  0  0  0  0  0  0  0  0
   19.7727   18.5213    6.0330 H   0  0  0  0  0  0  0  0  0  0  0  0
   21.8658   18.4400    3.2611 H   0  0  0  0  0  0  0  0  0  0  0  0
   16.3851   14.9307    7.0931 H   0  0  0  0  0  0  0  0  0  0  0  0
   15.7499   16.5925    6.6454 H   0  0  0  0  0  0  0  0  0  0  0  0
  2  1  2  0
  4  3  2  0
  4  1  1  0
  5  2  1  0
  6  5  2  0
  7  6  1  0
  8  7  2  0
  9  7  1  0
 10  6  1  0
 11  1  1  0
 12 11  1  0
 13 12  2  0
 14 12  1  0
  2 15  1  0
  4 16  1  0
  5 17  1  0
 10 18  1  0
 11 19  1  0
 11 20  1  0
M  CHG  2   9  -1  14  -1
M  END
$$$$
=
     RDKit          3D

 55 54  0  0  0  0  0  0  0  0999 V2000
   15.5130   15.4650    5.4730 C   0  0  0  0  0  0  0  0  0  0  0  0
   16.5740   16.5710    5.4930 C   0  0  0  0  0  0  0  0  0  0  0  0
   17.9130   16.0240    5.9950 C   0  0  0  0  0  0  0  0  0  0  0  0
   19.0690   16.1380    4.9640 N   0  0  0  0  0  4  0  0  0  0  0  0
   19.5470   14.7420    4.5540 C   0  0  0  0  0  0  0  0  0  0  0  0
   18.6250   16.9220    3.7580 C   0  0  0  0  0  0  0  0  0  0  0  0
   20.2300   16.8400    5.7280 C   0  0  0  0  0  0  0  0  0  0  0  0
   20.2720   18.3600    5.5360 C   0  0  0  0  0  0  0  0  0  0  0  0
   22.5050   17.5930    4.6480 C   0  0  0  0  0  0  0  0  0  0  0  0
   21.6280   18.7910    4.9700 C   0  0  0  0  0  0  0  0  0  0  0  0
   14.9890   15.1350    4.0740 C   0  0  0  0  0  0  0  0  0  0  0  0
   15.7990   14.1420    3.2280 C   0  0  0  0  0  0  0  0  0  0  0  0
   15.1270   12.8030    2.8990 C   0  0  0  0  0  0  0  0  0  0  0  0
   13.8390   12.5100    3.6750 C   0  0  0  0  0  0  0  0  0  0  0  0
   12.6030   12.6950    2.7910 C   0  0  0  0  0  0  0  0  0  0  0  0
   11.3970   13.3320    3.4960 C   0  0  0  0  0  0  0  0  0  0  0  0
   11.6100   13.6530    4.9750 C   0  0  0  0  0  0  0  0  0  0  0  0
   10.3700   13.8640    5.8340 C   0  0  0  0  0  0  0  0  0  0  0  0
   10.4150   13.4640    7.0300 O   0  0  0  0  0  0  0  0  0  0  0  0
    9.3820   14.3950    5.2470 O   0  0  0  0  0  1  0  0  0  0  0  0
   15.9547   14.5533    5.9015 H   0  0  0  0  0  0  0  0  0  0  0  0
   14.6564   15.8332    6.0566 H   0  0  0  0  0  0  0  0  0  0  0  0
   16.7038   16.9660    4.4746 H   0  0  0  0  0  0  0  0  0  0  0  0
   16.2406   17.3701    6.1714 H   0  0  0  0  0  0  0  0  0  0  0  0
   18.1985   16.5836    6.8979 H   0  0  0  0  0  0  0  0  0  0  0  0
   17.7654   14.9515    6.1900 H   0  0  0  0  0  0  0  0  0  0  0  0
   19.7514   14.1451    5.4551 H   0  0  0  0  0  0  0  0  0  0  0  0
   18.7668   14.2482    3.9562 H   0  0  0  0  0  0  0  0  0  0  0  0
   20.4662   14.8301    3.9562 H   0  0  0  0  0  0  0  0  0  0  0  0
   18.1074   17.8359    4.0850 H   0  0  0  0  0  0  0  0  0  0  0  0
   19.5031   17.1941    3.1539 H   0  0  0  0  0  0  0  0  0  0  0  0
   17.9400   16.3089    3.1539 H   0  0  0  0  0  0  0  0  0  0  0  0
   20.1148   16.6298    6.8016 H   0  0  0  0  0  0  0  0  0  0  0  0
   21.1691   16.4408    5.3172 H   0  0  0  0  0  0  0  0  0  0  0  0
   19.4765   18.6589    4.8375 H   0  0  0  0  0  0  0  0  0  0  0  0
   20.1223   18.8464    6.5112 H   0  0  0  0  0  0  0  0  0  0  0  0
   22.8465   17.1265    5.5838 H   0  0  0  0  0  0  0  0  0  0  0  0
   21.9270   16.8620    4.0635 H   0  0  0  0  0  0  0  0  0  0  0  0
   23.3765   17.9231    4.0635 H   0  0  0  0  0  0  0  0  0  0  0  0
   21.4630   19.3704    4.0497 H   0  0  0  0  0  0  0  0  0  0  0  0
   22.1409   19.3990    5.7298 H   0  0  0  0  0  0  0  0  0  0  0  0
   13.9774   14.7192    4.1910 H   0  0  0  0  0  0  0  0  0  0  0  0
   15.0473   16.0849    3.5224 H   0  0  0  0  0  0  0  0  0  0  0  0
   16.0400   14.6361    2.2752 H   0  0  0  0  0  0  0  0  0  0  0  0
   16.6706   13.8817    3.8465 H   0  0  0  0  0  0  0  0  0  0  0  0
   14.8859   12.7982    1.8258 H   0  0  0  0  0  0  0  0  0  0  0  0
   15.8439   12.0221    3.1926 H   0  0  0  0  0  0  0  0  0  0  0  0
   13.8677   11.4721    4.0382 H   0  0  0  0  0  0  0  0  0  0  0  0
   13.7727   13.2151    4.5167 H   0  0  0  0  0  0  0  0  0  0  0  0
   12.8820   13.3372    1.9427 H   0  0  0  0  0  0  0  0  0  0  0  0
   12.2865   11.6866    2.4861 H   0  0  0  0  0  0  0  0  0  0  0  0
   11.1529   14.2695    2.9749 H   0  0  0  0  0  0  0  0  0  0  0  0
   10.5884   12.5873    3.4560 H   0  0  0  0  0  0  0  0  0  0  0  0
   12.1776   12.8197    5.4147 H   0  0  0  0  0  0  0  0  0  0  0  0
   12.1233   14.6259    4.9797 H   0  0  0  0  0  0  0  0  0  0  0  0
  2  1  1  0
  3  2  1  0
  4  3  1  0
  5  4  1  0
  6  4  1  0
  7  4  1  0
  8  7  1  0
 10  8  1  0
 10  9  1  0
 11  1  1  0
 12 11  1  0
 13 12  1  0
 14 13  1  0
 15 14  1  0
 16 15  1  0
 17 16  1  0
 18 17  1  0
 19 18  2  0
 20 18  1  0
  1 21  1  0
  1 22  1  0
  2 23  1  0
  2 24  1  0
  3 25  1  0
  3 26  1  0
  5 27  1  0
  5 28  1  0
  5 29  1  0
  6 30  1  0
  6 31  1  0
  6 32  1  0
  7 33  1  0
  7 34  1  0
  8 35  1  0
  8 36  1  0
  9 37  1  0
  9 38  1  0
  9 39  1  0
 10 40  1  0
 10 41  1  0
 11 42  1  0
 11 43  1  0
 12 44  1  0
 12 45  1  0
 13 46  1  0
 13 47  1  0
 14 48  1  0
 14 49  1  0
 15 50  1  0
 15 51  1  0
 16 52  1  0
 16 53  1  0
 17 54  1  0
 17 55  1  0
M  CHG  2   4   1  20  -1
M  END
$$$$
=
     RDKit          3D

 31 31  0  0  0  0  0  0  0  0999 V2000
   16.7060   15.7580    6.6850 O   0  0  0  0  0  0  0  0  0  0  0  0
   16.6680   16.1970    5.5380 C   0  0  0  0  0  0  0  0  0  0  0  0
   17.7560   16.6820    4.8610 N   0  0  0  0  0  0  0  0  0  0  0  0
   19.1490   16.6160    5.3360 C   0  0  2  0  0  0  0  0  0  0  0  0
   19.7800   18.0010    5.3560 C   0  0  0  0  0  0  0  0  0  0  0  0
   20.0100   15.6770    4.4240 C   0  0  0  0  0  0  0  0  0  0  0  0
   19.4670   15.2630    3.3640 O   0  0  0  0  0  0  0  0  0  0  0  0
   21.1800   15.4580    4.8770 O   0  0  0  0  0  1  0  0  0  0  0  0
   15.3690   16.2830    4.7400 C   0  0  0  0  0  0  0  0  0  0  0  0
   14.9790   14.9340    4.1780 C   0  0  0  0  0  0  0  0  0  0  0  0
   15.7870   14.2430    3.3510 C   0  0  0  0  0  0  0  0  0  0  0  0
   15.4520   12.8890    2.7990 C   0  0  0  0  0  0  0  0  0  0  0  0
   14.2610   12.2300    3.4960 C   0  0  0  0  0  0  0  0  0  0  0  0
   13.1400   13.2350    3.7330 C   0  0  0  0  0  0  0  0  0  0  0  0
   13.6220   14.4100    4.5890 C   0  0  0  0  0  0  0  0  0  0  0  0
   17.5867   17.1279    3.9481 H   0  0  0  0  0  0  0  0  0  0  0  0
   19.1277   16.2087    6.3576 H   0  0  0  0  0  0  0  0  0  0  0  0
   19.9264   18.3222    6.3978 H   0  0  0  0  0  0  0  0  0  0  0  0
   20.7521   17.9685    4.8423 H   0  0  0  0  0  0  0  0  0  0  0  0
   19.1175   18.7132    4.8423 H   0  0  0  0  0  0  0  0  0  0  0  0
   14.5658   16.6418    5.4004 H   0  0  0  0  0  0  0  0  0  0  0  0
   15.5223   16.9776    3.9009 H   0  0  0  0  0  0  0  0  0  0  0  0
   16.7469   14.6973    3.0642 H   0  0  0  0  0  0  0  0  0  0  0  0
   15.2155   12.9964    1.7301 H   0  0  0  0  0  0  0  0  0  0  0  0
   16.3264   12.2430    2.9669 H   0  0  0  0  0  0  0  0  0  0  0  0
   13.8829   11.4121    2.8651 H   0  0  0  0  0  0  0  0  0  0  0  0
   14.5958   11.8435    4.4699 H   0  0  0  0  0  0  0  0  0  0  0  0
   12.7899   13.6175    2.7629 H   0  0  0  0  0  0  0  0  0  0  0  0
   12.3234   12.7268    4.2668 H   0  0  0  0  0  0  0  0  0  0  0  0
   12.8914   15.2277    4.5022 H   0  0  0  0  0  0  0  0  0  0  0  0
   13.7142   14.0434    5.6220 H   0  0  0  0  0  0  0  0  0  0  0  0
  2  1  2  0
  3  2  1  0
  4  3  1  0
  5  4  1  0
  6  4  1  0
  7  6  2  0
  8  6  1  0
  9  2  1  0
 10  9  1  0
 11 10  2  0
 12 11  1  0
 13 12  1  0
 14 13  1  0
 15 14  1  0
 15 10  1  0
  3 16  1  0
  4 17  1  1
  5 18  1  0
  5 19  1  0
  5 20  1  0
  9 21  1  0
  9 22  1  0
 11 23  1  0
 12 24  1  0
 12 25  1  0
 13 26  1  0
 13 27  1  0
 14 28  1  0
 14 29  1  0
 15 30  1  0
 15 31  1  0
M  CHG  1   8  -1
M  END
$$$$
=
     RDKit          3D

 55 57  0  0  0  0  0  0  0  0999 V2000
   12.1110   13.5360    5.4880 O   0  0  0  0  0  0  0  0  0  0  0  0
   12.7480   13.7730    4.4650 C   0  0  0  0  0  0  0  0  0  0  0  0
   12.2620   13.5330    3.1960 N   0  0  0  0  0  0  0  0  0  0  0  0
   14.1100   14.3740    4.5420 C   0  0  0  0  0  0  0  0  0  0  0  0
   14.9330   14.3160    3.4110 C   0  0  0  0  0  0  0  0  0  0  0  0
   16.2190   14.8700    3.4360 C   0  0  0  0  0  0  0  0  0  0  0  0
   16.6970   15.4950    4.5890 C   0  0  0  0  0  0  0  0  0  0  0  0
   15.8660   15.5670    5.7150 C   0  0  0  0  0  0  0  0  0  0  0  0
   14.5800   15.0140    5.6930 C   0  0  0  0  0  0  0  0  0  0  0  0
   17.9730   16.0800    4.6950 N   0  0  0  0  0  0  0  0  0  0  0  0
   19.1510   15.6420    4.1230 C   0  0  0  0  0  0  0  0  0  0  0  0
   19.3370   14.6290    3.4620 O   0  0  0  0  0  0  0  0  0  0  0  0
   20.3160   16.5140    4.4190 C   0  0  0  0  0  0  0  0  0  0  0  0
   20.5730   17.5540    3.5170 C   0  0  0  0  0  0  0  0  0  0  0  0
   21.6730   18.3890    3.7090 C   0  0  0  0  0  0  0  0  0  0  0  0
   22.5110   18.1880    4.8040 C   0  0  0  0  0  0  0  0  0  0  0  0
   22.2440   17.1640    5.7170 C   0  0  0  0  0  0  0  0  0  0  0  0
   21.1320   16.3230    5.5490 C   0  0  0  0  0  0  0  0  0  0  0  0
   20.8610   15.2550    6.5720 C   0  0  0  0  0  0  0  0  0  0  0  0
   10.9060   13.1950    3.0710 N   0  0  0  0  0  0  0  0  0  0  0  0
   10.6150   11.9880    2.4610 C   0  0  0  0  0  0  0  0  0  0  0  0
   11.5100   11.1860    2.1790 O   0  0  0  0  0  0  0  0  0  0  0  0
    9.1500   11.7690    2.0980 C   0  0  2  0  0  0  0  0  0  0  0  0
    9.0720   11.2230    0.6610 C   0  0  0  0  0  0  0  0  0  0  0  0
    7.6480   11.2460    0.1260 C   0  0  0  0  0  0  0  0  0  0  0  0
    7.0470   12.6500    0.1170 C   0  0  0  0  0  0  0  0  0  0  0  0
    7.7870   13.6500    1.0070 C   0  0  0  0  0  0  0  0  0  0  0  0
    8.3070   13.0440    2.3170 C   0  0  1  0  0  0  0  0  0  0  0  0
    7.0810   12.8390    3.2260 C   0  0  0  0  0  0  0  0  0  0  0  0
    6.7970   11.6480    3.5280 O   0  0  0  0  0  0  0  0  0  0  0  0
    6.4930   13.9090    3.5560 O   0  0  0  0  0  1  0  0  0  0  0  0
   12.8732   13.5996    2.3696 H   0  0  0  0  0  0  0  0  0  0  0  0
   14.5663   13.8309    2.4944 H   0  0  0  0  0  0  0  0  0  0  0  0
   16.8564   14.8123    2.5414 H   0  0  0  0  0  0  0  0  0  0  0  0
   16.2284   16.0639    6.6270 H   0  0  0  0  0  0  0  0  0  0  0  0
   13.9377   15.0831    6.5834 H   0  0  0  0  0  0  0  0  0  0  0  0
   18.0352   16.9349    5.2661 H   0  0  0  0  0  0  0  0  0  0  0  0
   19.9065   17.7123    2.6563 H   0  0  0  0  0  0  0  0  0  0  0  0
   21.8785   19.2034    2.9987 H   0  0  0  0  0  0  0  0  0  0  0  0
   23.3863   18.8379    4.9505 H   0  0  0  0  0  0  0  0  0  0  0  0
   22.9129   17.0151    6.5775 H   0  0  0  0  0  0  0  0  0  0  0  0
   20.9685   15.6785    7.5815 H   0  0  0  0  0  0  0  0  0  0  0  0
   19.8376   14.8735    6.4415 H   0  0  0  0  0  0  0  0  0  0  0  0
   21.5787   14.4317    6.4415 H   0  0  0  0  0  0  0  0  0  0  0  0
   10.1616   13.8169    3.4174 H   0  0  0  0  0  0  0  0  0  0  0  0
    8.7070   11.0210    2.7720 H   0  0  0  0  0  0  0  0  0  0  0  0
    9.7073   11.8414    0.0099 H   0  0  0  0  0  0  0  0  0  0  0  0
    9.4169   10.1785    0.6722 H   0  0  0  0  0  0  0  0  0  0  0  0
    7.6519   10.8578   -0.9032 H   0  0  0  0  0  0  0  0  0  0  0  0
    7.0317   10.6239    0.7917 H   0  0  0  0  0  0  0  0  0  0  0  0
    7.0651   13.0272   -0.9161 H   0  0  0  0  0  0  0  0  0  0  0  0
    6.0266   12.5616    0.5183 H   0  0  0  0  0  0  0  0  0  0  0  0
    8.6444   14.0475    0.4441 H   0  0  0  0  0  0  0  0  0  0  0  0
    7.0642   14.4329    1.2801 H   0  0  0  0  0  0  0  0  0  0  0  0
    9.0186   13.7251    2.8067 H   0  0  0  0  0  0  0  0  0  0  0  0
  2  1  2  0
  3  2  1  0
  4  2  1  0
  5  4  2  0
  6  5  1  0
  7  6  2  0
  8  7  1  0
  9  4  1  0
  9  8  2  0
 10  7  1  0
 11 10  1  0
 12 11  2  0
 13 11  1  0
 14 13  2  0
 15 14  1  0
 16 15  2  0
 17 16  1  0
 18 13  1  0
 18 17  2  0
 19 18  1  0
 20  3  1  0
 21 20  1  0
 22 21  2  0
 23 21  1  0
 24 23  1  0
 25 24  1  0
 26 25  1  0
 27 26  1  0
 28 27  1  0
 28 23  1  0
 29 28  1  0
 30 29  2  0
 31 29  1  0
  3 32  1  0
  5 33  1  0
  6 34  1  0
  8 35  1  0
  9 36  1  0
 10 37  1  0
 14 38  1  0
 15 39  1  0
 16 40  1  0
 17 41  1  0
 19 42  1  0
 19 43  1  0
 19 44  1  0
 20 45  1  0
 23 46  1  1
 24 47  1  0
 24 48  1  0
 25 49  1  0
 25 50  1  0
 26 51  1  0
 26 52  1  0
 27 53  1  0
 27 54  1  0
 28 55  1  1
M  CHG  1  31  -1
M  END
$$$$
=
     RDKit          3D

 27 27  0  0  0  0  0  0  0  0999 V2000
   16.1900   15.2580    4.5900 C   0  0  0  0  0  0  0  0  0  0  0  0
   17.2540   15.0840    3.6910 C   0  0  0  0  0  0  0  0  0  0  0  0
   18.4310   15.8390    3.7850 C   0  0  0  0  0  0  0  0  0  0  0  0
   18.5910   16.7900    4.7980 C   0  0  0  0  0  0  0  0  0  0  0  0
   17.5410   16.9760    5.6970 C   0  0  0  0  0  0  0  0  0  0  0  0
   16.3680   16.2110    5.6020 C   0  0  0  0  0  0  0  0  0  0  0  0
   15.1780   13.3860    3.4860 C   0  0  0  0  0  0  0  0  0  0  0  0
   15.0270   14.4750    4.4530 N   0  0  0  0  0  0  0  0  0  0  0  0
   13.7510   15.1840    4.3770 C   0  0  0  0  0  0  0  0  0  0  0  0
   19.8150   17.6030    4.8190 C   0  0  0  0  0  0  0  0  0  0  0  0
   21.0250   17.2570    5.2940 C   0  0  0  0  0  0  0  0  0  0  0  0
   21.3820   15.9050    5.8980 C   0  0  0  0  0  0  0  0  0  0  0  0
   21.2360   15.8250    7.1520 O   0  0  0  0  0  0  0  0  0  0  0  0
   21.7910   15.0370    5.0760 O   0  0  0  0  0  1  0  0  0  0  0  0
   22.1150   18.1620    5.2370 C   0  0  0  0  0  0  0  0  0  0  0  0
   23.0480   18.8480    5.1330 N   0  0  0  0  0  0  0  0  0  0  0  0
   17.1614   14.3347    2.8910 H   0  0  0  0  0  0  0  0  0  0  0  0
   19.2378   15.6819    3.0540 H   0  0  0  0  0  0  0  0  0  0  0  0
   17.6333   17.7320    6.4907 H   0  0  0  0  0  0  0  0  0  0  0  0
   15.5677   16.3635    6.3411 H   0  0  0  0  0  0  0  0  0  0  0  0
   15.3099   12.4348    4.0226 H   0  0  0  0  0  0  0  0  0  0  0  0
   14.2791   13.3292    2.8545 H   0  0  0  0  0  0  0  0  0  0  0  0
   16.0584   13.5759    2.8545 H   0  0  0  0  0  0  0  0  0  0  0  0
   13.3838   15.3880    5.3936 H   0  0  0  0  0  0  0  0  0  0  0  0
   13.8907   16.1338    3.8401 H   0  0  0  0  0  0  0  0  0  0  0  0
   13.0183   14.5637    3.8401 H   0  0  0  0  0  0  0  0  0  0  0  0
   19.7318   18.6150    4.3959 H   0  0  0  0  0  0  0  0  0  0  0  0
  2  1  2  0
  3  2  1  0
  4  3  2  0
  5  4  1  0
  6  1  1  0
  6  5  2  0
  8  7  1  0
  8  1  1  0
  9  8  1  0
 10  4  1  0
 11 10  2  0
 12 11  1  0
 13 12  2  0
 14 12  1  0
 15 11  1  0
 16 15  3  0
  2 17  1  0
  3 18  1  0
  5 19  1  0
  6 20  1  0
  7 21  1  0
  7 22  1  0
  7 23  1  0
  9 24  1  0
  9 25  1  0
  9 26  1  0
 10 27  1  0
M  CHG  1  14  -1
M  END
$$$$
=
     RDKit          3D

 49 53  0  0  0  0  0  0  0  0999 V2000
   25.6340   26.3650   14.5250 C   0  0  0  0  0  0  0  0  0  0  0  0
   24.3210   26.0290   14.7670 C   0  0  0  0  0  0  0  0  0  0  0  0
   24.0630   26.3000   16.0850 N   0  0  0  0  0  0  0  0  0  0  0  0
   25.1560   26.7990   16.7100 N   0  0  0  0  0  0  0  0  0  0  0  0
   26.1220   26.8450   15.7770 C   0  0  0  0  0  0  0  0  0  0  0  0
   27.5060   27.3680   16.1580 C   0  0  1  0  0  0  0  0  0  0  0  0
   28.4900   26.1990   16.4390 C   0  0  0  0  0  0  0  0  0  0  0  0
   29.8790   26.7250   16.8400 C   0  0  1  0  0  0  0  0  0  0  0  0
   30.4570   27.5610   15.6880 C   0  0  0  0  0  0  0  0  0  0  0  0
   29.5310   28.7490   15.3920 C   0  0  1  0  0  0  0  0  0  0  0  0
   28.1380   28.2220   15.0070 C   0  0  0  0  0  0  0  0  0  0  0  0
   29.4110   29.6260   16.6470 C   0  0  0  0  0  0  0  0  0  0  0  0
   28.8270   28.8030   17.8030 C   0  0  1  0  0  0  0  0  0  0  0  0
   27.4310   28.2890   17.4090 C   0  0  0  0  0  0  0  0  0  0  0  0
   29.7460   27.6060   18.0920 C   0  0  0  0  0  0  0  0  0  0  0  0
   22.8410   26.1170   16.7950 C   0  0  0  0  0  0  0  0  0  0  0  0
   21.8210   25.3380   16.2250 C   0  0  0  0  0  0  0  0  0  0  0  0
   20.6160   25.1470   16.9040 C   0  0  0  0  0  0  0  0  0  0  0  0
   20.4190   25.7280   18.1540 C   0  0  0  0  0  0  0  0  0  0  0  0
   21.4270   26.5030   18.7270 C   0  0  0  0  0  0  0  0  0  0  0  0
   22.6360   26.6990   18.0530 C   0  0  0  0  0  0  0  0  0  0  0  0
   27.2650   25.3520   12.9630 C   0  0  0  0  0  0  0  0  0  0  0  0
   26.3000   26.2350   13.2680 C   0  0  0  0  0  0  0  0  0  0  0  0
   28.5190   26.3630   11.2650 O   0  0  0  0  0  1  0  0  0  0  0  0
   27.9110   25.3010   11.5800 C   0  0  0  0  0  0  0  0  0  0  0  0
   27.7660   24.2300   10.9300 O   0  0  0  0  0  0  0  0  0  0  0  0
   23.6092   25.6181   14.0359 H   0  0  0  0  0  0  0  0  0  0  0  0
   28.0900   25.5822   17.2572 H   0  0  0  0  0  0  0  0  0  0  0  0
   28.5950   25.6037   15.5200 H   0  0  0  0  0  0  0  0  0  0  0  0
   30.5482   25.8785   17.0537 H   0  0  0  0  0  0  0  0  0  0  0  0
   31.4517   27.9352   15.9717 H   0  0  0  0  0  0  0  0  0  0  0  0
   30.5399   26.9324   14.7891 H   0  0  0  0  0  0  0  0  0  0  0  0
   29.9455   29.3432   14.5643 H   0  0  0  0  0  0  0  0  0  0  0  0
   27.4793   29.0768   14.7938 H   0  0  0  0  0  0  0  0  0  0  0  0
   28.2463   27.5789   14.1212 H   0  0  0  0  0  0  0  0  0  0  0  0
   30.4072   29.9970   16.9298 H   0  0  0  0  0  0  0  0  0  0  0  0
   28.7456   30.4756   16.4339 H   0  0  0  0  0  0  0  0  0  0  0  0
   28.7488   29.4335   18.7009 H   0  0  0  0  0  0  0  0  0  0  0  0
   26.7820   29.1482   17.1842 H   0  0  0  0  0  0  0  0  0  0  0  0
   27.0237   27.7060   18.2482 H   0  0  0  0  0  0  0  0  0  0  0  0
   29.3193   27.0099   18.9121 H   0  0  0  0  0  0  0  0  0  0  0  0
   30.7413   27.9780   18.3767 H   0  0  0  0  0  0  0  0  0  0  0  0
   21.9722   24.8758   15.2383 H   0  0  0  0  0  0  0  0  0  0  0  0
   19.8211   24.5366   16.4507 H   0  0  0  0  0  0  0  0  0  0  0  0
   19.4698   25.5759   18.6887 H   0  0  0  0  0  0  0  0  0  0  0  0
   21.2700   26.9623   19.7141 H   0  0  0  0  0  0  0  0  0  0  0  0
   23.4273   27.3108   18.5108 H   0  0  0  0  0  0  0  0  0  0  0  0
   27.6008   24.6429   13.7340 H   0  0  0  0  0  0  0  0  0  0  0  0
   25.9918   26.9270   12.4704 H   0  0  0  0  0  0  0  0  0  0  0  0
  2  1  2  0
  3  2  1  0
  4  3  1  0
  5  1  1  0
  5  4  2  0
  6  5  1  6
  7  6  1  0
  8  7  1  0
  9  8  1  0
 10  9  1  0
 11 10  1  0
 11  6  1  0
 12 10  1  0
 13 12  1  0
 14  6  1  0
 14 13  1  0
 15  8  1  0
 15 13  1  0
 16  3  1  0
 17 16  2  0
 18 17  1  0
 19 18  2  0
 20 19  1  0
 21 20  2  0
 21 16  1  0
 23  1  1  0
 23 22  2  0
 25 24  1  0
 25 22  1  0
 26 25  2  0
  2 27  1  0
  7 28  1  0
  7 29  1  0
  8 30  1  1
  9 31  1  0
  9 32  1  0
 10 33  1  6
 11 34  1  0
 11 35  1  0
 12 36  1  0
 12 37  1  0
 13 38  1  1
 14 39  1  0
 14 40  1  0
 15 41  1  0
 15 42  1  0
 17 43  1  0
 18 44  1  0
 19 45  1  0
 20 46  1  0
 21 47  1  0
 22 48  1  0
 23 49  1  0
M  CHG  1  24  -1
M  END
$$$$
=
     RDKit          3D

 39 39  0  0  0  0  0  0  0  0999 V2000
   18.2280   15.3080    3.8350 C   0  0  2  0  0  0  0  0  0  0  0  0
   18.8780   14.0630    4.4200 C   0  0  0  0  0  0  0  0  0  0  0  0
   20.2250   16.6010    4.4170 N   0  0  0  0  0  0  0  0  0  0  0  0
   18.8620   16.5790    4.4360 C   0  0  0  0  0  0  0  0  0  0  0  0
   18.1900   17.4970    4.9090 O   0  0  0  0  0  0  0  0  0  0  0  0
   21.0950   17.5910    5.0980 C   0  0  1  0  0  0  0  0  0  0  0  0
   21.9030   16.9060    6.2460 C   0  0  0  0  0  0  0  0  0  0  0  0
   23.0450   17.4350    6.4410 O   0  0  0  0  0  0  0  0  0  0  0  0
   21.3620   15.9230    6.8180 O   0  0  0  0  0  1  0  0  0  0  0  0
   22.1020   18.2340    4.1420 C   0  0  0  0  0  0  0  0  0  0  0  0
   22.5760   19.4980    4.6310 O   0  0  0  0  0  0  0  0  0  0  0  0
   16.8030   15.3220    4.1470 N   0  0  0  0  0  0  0  0  0  0  0  0
   15.9220   14.5670    3.4350 C   0  0  0  0  0  0  0  0  0  0  0  0
   16.2020   13.6010    2.7420 O   0  0  0  0  0  0  0  0  0  0  0  0
   14.6760   15.0640    3.6130 O   0  0  0  0  0  0  0  0  0  0  0  0
   13.9370   14.3930    4.6350 C   0  0  0  0  0  0  0  0  0  0  0  0
   12.6600   13.8630    4.0320 C   0  0  0  0  0  0  0  0  0  0  0  0
   11.4240   14.4180    4.3990 C   0  0  0  0  0  0  0  0  0  0  0  0
   10.2380   13.9390    3.8400 C   0  0  0  0  0  0  0  0  0  0  0  0
   10.2740   12.9030    2.9100 C   0  0  0  0  0  0  0  0  0  0  0  0
   11.4950   12.3420    2.5390 C   0  0  0  0  0  0  0  0  0  0  0  0
   12.6830   12.8200    3.0970 C   0  0  0  0  0  0  0  0  0  0  0  0
   18.3807   15.2910    2.7458 H   0  0  0  0  0  0  0  0  0  0  0  0
   18.8501   14.1164    5.5183 H   0  0  0  0  0  0  0  0  0  0  0  0
   18.3308   13.1705    4.0823 H   0  0  0  0  0  0  0  0  0  0  0  0
   19.9231   14.0019    4.0823 H   0  0  0  0  0  0  0  0  0  0  0  0
   20.6955   15.8597    3.8785 H   0  0  0  0  0  0  0  0  0  0  0  0
   20.4264   18.3695    5.4941 H   0  0  0  0  0  0  0  0  0  0  0  0
   22.9596   17.5559    4.0207 H   0  0  0  0  0  0  0  0  0  0  0  0
   21.5948   18.4096    3.1818 H   0  0  0  0  0  0  0  0  0  0  0  0
   22.5733   19.4909    5.6210 H   0  0  0  0  0  0  0  0  0  0  0  0
   16.4583   15.9121    4.9176 H   0  0  0  0  0  0  0  0  0  0  0  0
   14.5318   13.5593    5.0365 H   0  0  0  0  0  0  0  0  0  0  0  0
   13.7063   15.0908    5.4535 H   0  0  0  0  0  0  0  0  0  0  0  0
   11.3898   15.2368    5.1328 H   0  0  0  0  0  0  0  0  0  0  0  0
    9.2743   14.3801    4.1343 H   0  0  0  0  0  0  0  0  0  0  0  0
    9.3392   12.5275    2.4683 H   0  0  0  0  0  0  0  0  0  0  0  0
   11.5230   11.5221    1.8062 H   0  0  0  0  0  0  0  0  0  0  0  0
   13.6437   12.3741    2.8001 H   0  0  0  0  0  0  0  0  0  0  0  0
  2  1  1  0
  4  1  1  0
  4  3  1  0
  5  4  2  0
  6  3  1  0
  7  6  1  0
  8  7  2  0
  9  7  1  0
 10  6  1  0
 11 10  1  0
 12  1  1  0
 13 12  1  0
 14 13  2  0
 15 13  1  0
 16 15  1  0
 17 16  1  0
 18 17  2  0
 19 18  1  0
 20 19  2  0
 21 20  1  0
 22 21  2  0
 22 17  1  0
  1 23  1  6
  2 24  1  0
  2 25  1  0
  2 26  1  0
  3 27  1  0
  6 28  1  1
 10 29  1  0
 10 30  1  0
 11 31  1  0
 12 32  1  0
 16 33  1  0
 16 34  1  0
 18 35  1  0
 19 36  1  0
 20 37  1  0
 21 38  1  0
 22 39  1  0
M  CHG  1   9  -1
M  END
$$$$
=
     RDKit          3D

 17 17  0  0  0  0  0  0  0  0999 V2000
   15.3290   12.5520    2.4580 C   0  0  0  0  0  0  0  0  0  0  0  0
   16.1910   13.4590    3.1740 N   0  0  0  0  0  0  0  0  0  0  0  0
   17.5430   13.3960    3.2520 C   0  0  0  0  0  0  0  0  0  0  0  0
   17.9100   14.4640    4.0350 C   0  0  0  0  0  0  0  0  0  0  0  0
   16.7140   15.1310    4.3950 C   0  0  0  0  0  0  0  0  0  0  0  0
   15.6470   14.4900    3.8480 N   0  0  0  0  0  0  0  0  0  0  0  0
   16.5740   16.3690    5.2510 C   0  0  0  0  0  0  0  0  0  0  0  0
   17.5240   17.3130    5.0130 F   0  0  0  0  0  0  0  0  0  0  0  0
   16.5440   16.1130    6.5880 F   0  0  0  0  0  0  0  0  0  0  0  0
   15.3830   17.0100    5.0000 F   0  0  0  0  0  0  0  0  0  0  0  0
   19.3480   14.8770    4.4560 C   0  0  0  0  0  0  0  0  0  0  0  0
   20.0200   15.5060    3.5900 O   0  0  0  0  0  0  0  0  0  0  0  0
   19.7100   14.5430    5.6240 O   0  0  0  0  0  1  0  0  0  0  0  0
   14.7549   11.9480    3.1760 H   0  0  0  0  0  0  0  0  0  0  0  0
   14.6361   13.1267    1.8258 H   0  0  0  0  0  0  0  0  0  0  0  0
   15.9382   11.8893    1.8258 H   0  0  0  0  0  0  0  0  0  0  0  0
   18.2046   12.6497    2.7879 H   0  0  0  0  0  0  0  0  0  0  0  0
  2  1  1  0
  3  2  1  0
  4  3  2  0
  5  4  1  0
  6  2  1  0
  6  5  2  0
  7  5  1  0
  8  7  1  0
  9  7  1  0
 10  7  1  0
 11  4  1  0
 12 11  2  0
 13 11  1  0
  1 14  1  0
  1 15  1  0
  1 16  1  0
  3 17  1  0
M  CHG  1  13  -1
M  END
$$$$
=
     RDKit          3D

 24 25  0  0  0  0  0  0  0  0999 V2000
   13.7940   15.3830    4.2900 C   0  0  0  0  0  0  0  0  0  0  0  0
   15.2620   15.3930    4.4260 C   0  0  0  0  0  0  0  0  0  0  0  0
   16.2500   14.5020    4.0710 C   0  0  0  0  0  0  0  0  0  0  0  0
   17.4670   15.0920    4.4840 C   0  0  0  0  0  0  0  0  0  0  0  0
   17.1650   16.3020    5.0700 C   0  0  0  0  0  0  0  0  0  0  0  0
   15.8070   16.4930    5.0220 O   0  0  0  0  0  0  0  0  0  0  0  0
   18.8950   14.4880    4.3130 C   0  0  0  0  0  0  0  0  0  0  0  0
   19.5760   14.3620    5.3740 O   0  0  0  0  0  0  0  0  0  0  0  0
   19.2400   14.1840    3.1330 O   0  0  0  0  0  1  0  0  0  0  0  0
   18.0360   17.3530    5.6740 C   0  0  0  0  0  0  0  0  0  0  0  0
   19.1890   18.1660    4.5210 S   0  0  0  0  0  0  0  0  0  0  0  0
   20.7150   17.8790    5.2650 C   0  0  0  0  0  0  0  0  0  0  0  0
   21.8030   18.6000    5.1300 N   0  0  0  0  0  0  0  0  0  0  0  0
   22.7150   17.9010    5.8700 C   0  0  0  0  0  0  0  0  0  0  0  0
   22.2670   16.7750    6.4320 N   0  0  0  0  0  0  0  0  0  0  0  0
   20.9780   16.7840    6.0320 N   0  0  0  0  0  0  0  0  0  0  0  0
   13.3332   15.3799    5.2888 H   0  0  0  0  0  0  0  0  0  0  0  0
   13.4706   16.2790    3.7398 H   0  0  0  0  0  0  0  0  0  0  0  0
   13.4829   14.4827    3.7398 H   0  0  0  0  0  0  0  0  0  0  0  0
   16.1195   13.5316    3.5697 H   0  0  0  0  0  0  0  0  0  0  0  0
   17.3847   18.1273    6.1057 H   0  0  0  0  0  0  0  0  0  0  0  0
   18.6620   16.8386    6.4180 H   0  0  0  0  0  0  0  0  0  0  0  0
   23.7526   18.2441    5.9949 H   0  0  0  0  0  0  0  0  0  0  0  0
   20.2861   16.0604    6.2740 H   0  0  0  0  0  0  0  0  0  0  0  0
  2  1  1  0
  3  2  2  0
  4  3  1  0
  5  4  2  0
  6  2  1  0
  6  5  1  0
  7  4  1  0
  8  7  2  0
  9  7  1  0
 10  5  1  0
 11 10  1  0
 12 11  1  0
 13 12  2  0
 14 13  1  0
 15 14  2  0
 16 12  1  0
 16 15  1  0
  1 17  1  0
  1 18  1  0
  1 19  1  0
  3 20  1  0
 10 21  1  0
 10 22  1  0
 14 23  1  0
 16 24  1  0
M  CHG  1   9  -1
M  END
$$$$
=
     RDKit          3D

 45 46  0  0  0  0  0  0  0  0999 V2000
   17.4260   17.1860    5.6500 C   0  0  0  0  0  0  0  0  0  0  0  0
   18.7810   17.0020    4.9540 C   0  0  1  0  0  0  0  0  0  0  0  0
   18.6960   16.3280    3.5640 C   0  0  0  0  0  0  0  0  0  0  0  0
   19.3430   17.1410    2.4330 C   0  0  0  0  0  0  0  0  0  0  0  0
   20.7340   17.6960    2.7550 C   0  0  0  0  0  0  0  0  0  0  0  0
   20.8130   18.0560    4.1870 N   0  0  2  0  0  4  0  0  0  0  0  0
   19.5180   18.3410    4.8750 C   0  0  0  0  0  0  0  0  0  0  0  0
   21.9450   19.0190    4.6180 C   0  0  0  0  0  0  0  0  0  0  0  0
   22.9390   18.2300    5.5270 C   0  0  0  0  0  0  0  0  0  0  0  0
   24.1370   18.6140    5.2870 O   0  0  0  0  0  0  0  0  0  0  0  0
   22.4690   17.3230    6.2410 O   0  0  0  0  0  1  0  0  0  0  0  0
   16.3030   15.3510    6.9710 C   0  0  0  0  0  0  0  0  0  0  0  0
   16.5900   15.9210    5.5940 N   0  0  1  0  0  4  0  0  0  0  0  0
   15.3020   16.1360    4.8100 C   0  0  0  0  0  0  0  0  0  0  0  0
   14.8090   14.8890    4.1300 C   0  0  0  0  0  0  0  0  0  0  0  0
   13.4750   14.4780    4.2740 C   0  0  0  0  0  0  0  0  0  0  0  0
   13.0270   13.3060    3.6640 C   0  0  0  0  0  0  0  0  0  0  0  0
   13.9030   12.5360    2.9030 C   0  0  0  0  0  0  0  0  0  0  0  0
   15.2280   12.9360    2.7470 C   0  0  0  0  0  0  0  0  0  0  0  0
   15.6820   14.1070    3.3550 C   0  0  0  0  0  0  0  0  0  0  0  0
   17.5994   17.4524    6.7031 H   0  0  0  0  0  0  0  0  0  0  0  0
   16.8773   17.9831    5.1270 H   0  0  0  0  0  0  0  0  0  0  0  0
   19.3542   16.2999    5.5773 H   0  0  0  0  0  0  0  0  0  0  0  0
   19.2015   15.3527    3.6214 H   0  0  0  0  0  0  0  0  0  0  0  0
   17.6273   16.2385    3.3194 H   0  0  0  0  0  0  0  0  0  0  0  0
   19.4302   16.4902    1.5505 H   0  0  0  0  0  0  0  0  0  0  0  0
   18.6927   18.0126    2.2672 H   0  0  0  0  0  0  0  0  0  0  0  0
   21.4928   16.9325    2.5284 H   0  0  0  0  0  0  0  0  0  0  0  0
   20.9159   18.5934    2.1454 H   0  0  0  0  0  0  0  0  0  0  0  0
   21.1157   17.1427    4.5547 H   0  0  0  0  0  0  0  0  0  0  0  0
   19.7004   18.7374    5.8847 H   0  0  0  0  0  0  0  0  0  0  0  0
   18.9292   19.0944    4.3312 H   0  0  0  0  0  0  0  0  0  0  0  0
   22.4723   19.3951    3.7289 H   0  0  0  0  0  0  0  0  0  0  0  0
   21.5262   19.8749    5.1675 H   0  0  0  0  0  0  0  0  0  0  0  0
   16.6568   16.0537    7.7398 H   0  0  0  0  0  0  0  0  0  0  0  0
   15.2199   15.1970    7.0856 H   0  0  0  0  0  0  0  0  0  0  0  0
   16.8243   14.3892    7.0856 H   0  0  0  0  0  0  0  0  0  0  0  0
   17.1551   15.2210    5.0924 H   0  0  0  0  0  0  0  0  0  0  0  0
   14.5242   16.4867    5.5043 H   0  0  0  0  0  0  0  0  0  0  0  0
   15.5166   16.8748    4.0238 H   0  0  0  0  0  0  0  0  0  0  0  0
   12.7780   15.0838    4.8717 H   0  0  0  0  0  0  0  0  0  0  0  0
   11.9804   12.9897    3.7843 H   0  0  0  0  0  0  0  0  0  0  0  0
   13.5482   11.6111    2.4247 H   0  0  0  0  0  0  0  0  0  0  0  0
   15.9177   12.3277    2.1434 H   0  0  0  0  0  0  0  0  0  0  0  0
   16.7288   14.4196    3.2269 H   0  0  0  0  0  0  0  0  0  0  0  0
  2  1  1  0
  3  2  1  0
  4  3  1  0
  5  4  1  0
  6  5  1  0
  7  6  1  0
  7  2  1  0
  8  6  1  0
  9  8  1  0
 10  9  2  0
 11  9  1  0
 13 12  1  0
 13  1  1  0
 14 13  1  0
 15 14  1  0
 16 15  2  0
 17 16  1  0
 18 17  2  0
 19 18  1  0
 20 19  2  0
 20 15  1  0
  1 21  1  0
  1 22  1  0
  2 23  1  1
  3 24  1  0
  3 25  1  0
  4 26  1  0
  4 27  1  0
  5 28  1  0
  5 29  1  0
  6 30  1  1
  7 31  1  0
  7 32  1  0
  8 33  1  0
  8 34  1  0
 12 35  1  0
 12 36  1  0
 12 37  1  0
 13 38  1  6
 14 39  1  0
 14 40  1  0
 16 41  1  0
 17 42  1  0
 18 43  1  0
 19 44  1  0
 20 45  1  0
M  CHG  3   6   1  11  -1  13   1
M  END
$$$$
=
     RDKit          3D

 21 22  0  0  0  0  0  0  0  0999 V2000
   18.4320   16.1970    5.1240 C   0  0  1  0  0  0  0  0  0  0  0  0
   19.2160   15.0790    5.7880 C   0  0  0  0  0  0  0  0  0  0  0  0
   20.5110   15.6470    6.2960 C   0  0  0  0  0  0  0  0  0  0  0  0
   21.1010   15.2070    7.2790 O   0  0  0  0  0  0  0  0  0  0  0  0
   21.1010   16.7440    5.5030 C   0  0  0  0  0  0  0  0  0  0  0  0
   20.4050   17.2200    4.3910 C   0  0  0  0  0  0  0  0  0  0  0  0
   19.1780   16.7510    4.0140 O   0  0  0  0  0  0  0  0  0  0  0  0
   20.9730   18.2040    3.5820 C   0  0  0  0  0  0  0  0  0  0  0  0
   22.2230   18.7320    3.9050 C   0  0  0  0  0  0  0  0  0  0  0  0
   22.8980   18.2620    5.0290 C   0  0  0  0  0  0  0  0  0  0  0  0
   22.3530   17.2680    5.8340 C   0  0  0  0  0  0  0  0  0  0  0  0
   24.1000   18.7710    5.3330 F   0  0  0  0  0  0  0  0  0  0  0  0
   17.1240   15.0060    3.5380 O   0  0  0  0  0  1  0  0  0  0  0  0
   17.0640   15.6950    4.6000 C   0  0  0  0  0  0  0  0  0  0  0  0
   16.0440   16.0450    5.2610 O   0  0  0  0  0  0  0  0  0  0  0  0
   18.2626   16.9712    5.8869 H   0  0  0  0  0  0  0  0  0  0  0  0
   18.6366   14.6660    6.6269 H   0  0  0  0  0  0  0  0  0  0  0  0
   19.4134   14.2738    5.0650 H   0  0  0  0  0  0  0  0  0  0  0  0
   20.4364   18.5628    2.6913 H   0  0  0  0  0  0  0  0  0  0  0  0
   22.6727   19.5145    3.2761 H   0  0  0  0  0  0  0  0  0  0  0  0
   22.8981   16.9006    6.7160 H   0  0  0  0  0  0  0  0  0  0  0  0
  2  1  1  0
  3  2  1  0
  4  3  2  0
  5  3  1  0
  6  5  2  0
  7  1  1  0
  7  6  1  0
  8  6  1  0
  9  8  2  0
 10  9  1  0
 11  5  1  0
 11 10  2  0
 12 10  1  0
 14 13  1  0
 14  1  1  0
 15 14  2  0
  1 16  1  1
  2 17  1  0
  2 18  1  0
  8 19  1  0
  9 20  1  0
 11 21  1  0
M  CHG  1  13  -1
M  END
$$$$
=
     RDKit          3D

 55 54  0  0  0  0  0  0  0  0999 V2000
   18.2420   14.4070    3.5620 C   0  0  0  0  0  0  0  0  0  0  0  0
   17.8220   12.9480    3.3610 C   0  0  0  0  0  0  0  0  0  0  0  0
   16.5130   12.8520    2.5730 C   0  0  0  0  0  0  0  0  0  0  0  0
   15.3660   12.2280    3.3730 C   0  0  0  0  0  0  0  0  0  0  0  0
   14.3270   13.2490    3.8450 C   0  0  0  0  0  0  0  0  0  0  0  0
   14.6930   14.6620    3.3840 C   0  0  0  0  0  0  0  0  0  0  0  0
   14.8230   15.6650    4.5340 C   0  0  0  0  0  0  0  0  0  0  0  0
   15.2690   15.0850    5.8800 C   0  0  0  0  0  0  0  0  0  0  0  0
   16.8760   17.0120    5.6500 C   0  0  0  0  0  0  0  0  0  0  0  0
   16.4710   15.8090    6.4880 C   0  0  0  0  0  0  0  0  0  0  0  0
   19.6210   14.5010    4.2180 C   0  0  0  0  0  0  0  0  0  0  0  0
   19.5740   14.4800    5.7480 C   0  0  0  0  0  0  0  0  0  0  0  0
   20.6590   15.2910    6.4680 C   0  0  0  0  0  0  0  0  0  0  0  0
   21.6410   15.9730    5.5150 C   0  0  0  0  0  0  0  0  0  0  0  0
   22.0260   17.4040    5.9180 C   0  0  0  0  0  0  0  0  0  0  0  0
   21.2570   18.5000    5.1710 C   0  0  2  0  0  0  0  0  0  0  0  0
   19.9200   18.7790    5.8620 C   0  0  0  0  0  0  0  0  0  0  0  0
   20.8490   18.1640    3.7240 C   0  0  0  0  0  0  0  0  0  0  0  0
   19.6280   17.8620    3.5810 O   0  0  0  0  0  0  0  0  0  0  0  0
   21.7640   18.2220    2.8570 O   0  0  0  0  0  1  0  0  0  0  0  0
   18.2752   14.9087    2.5837 H   0  0  0  0  0  0  0  0  0  0  0  0
   17.5085   14.8925    4.2225 H   0  0  0  0  0  0  0  0  0  0  0  0
   18.6130   12.4199    2.8084 H   0  0  0  0  0  0  0  0  0  0  0  0
   17.6677   12.4907    4.3495 H   0  0  0  0  0  0  0  0  0  0  0  0
   16.2144   13.8658    2.2682 H   0  0  0  0  0  0  0  0  0  0  0  0
   16.7009   12.1967    1.7097 H   0  0  0  0  0  0  0  0  0  0  0  0
   14.8613   11.4855    2.7374 H   0  0  0  0  0  0  0  0  0  0  0  0
   15.8072   11.7744    4.2728 H   0  0  0  0  0  0  0  0  0  0  0  0
   13.3444   12.9793    3.4306 H   0  0  0  0  0  0  0  0  0  0  0  0
   14.2998   13.2366    4.9446 H   0  0  0  0  0  0  0  0  0  0  0  0
   15.6543   14.6164    2.8513 H   0  0  0  0  0  0  0  0  0  0  0  0
   13.8748   15.0140    2.7385 H   0  0  0  0  0  0  0  0  0  0  0  0
   15.5578   16.4271    4.2352 H   0  0  0  0  0  0  0  0  0  0  0  0
   13.8099   16.0598    4.7008 H   0  0  0  0  0  0  0  0  0  0  0  0
   14.4275   15.1545    6.5851 H   0  0  0  0  0  0  0  0  0  0  0  0
   15.5761   14.0445    5.6982 H   0  0  0  0  0  0  0  0  0  0  0  0
   17.1559   17.8435    6.3135 H   0  0  0  0  0  0  0  0  0  0  0  0
   17.7337   16.7447    5.0152 H   0  0  0  0  0  0  0  0  0  0  0  0
   16.0313   17.3178    5.0152 H   0  0  0  0  0  0  0  0  0  0  0  0
   16.2089   16.1499    7.5005 H   0  0  0  0  0  0  0  0  0  0  0  0
   17.3180   15.1079    6.5194 H   0  0  0  0  0  0  0  0  0  0  0  0
   20.2273   13.6489    3.8769 H   0  0  0  0  0  0  0  0  0  0  0  0
   20.0542   15.4677    3.9216 H   0  0  0  0  0  0  0  0  0  0  0  0
   18.5962   14.8759    6.0596 H   0  0  0  0  0  0  0  0  0  0  0  0
   19.7492   13.4325    6.0345 H   0  0  0  0  0  0  0  0  0  0  0  0
   20.1691   16.0654    7.0766 H   0  0  0  0  0  0  0  0  0  0  0  0
   21.2388   14.5851    7.0808 H   0  0  0  0  0  0  0  0  0  0  0  0
   22.5588   15.3679    5.4758 H   0  0  0  0  0  0  0  0  0  0  0  0
   21.1340   16.0466    4.5416 H   0  0  0  0  0  0  0  0  0  0  0  0
   21.8342   17.5218    6.9947 H   0  0  0  0  0  0  0  0  0  0  0  0
   23.0868   17.5298    5.6556 H   0  0  0  0  0  0  0  0  0  0  0  0
   21.9685   19.3389    5.1717 H   0  0  0  0  0  0  0  0  0  0  0  0
   20.0580   18.7502    6.9529 H   0  0  0  0  0  0  0  0  0  0  0  0
   19.5540   19.7729    5.5648 H   0  0  0  0  0  0  0  0  0  0  0  0
   19.1871   18.0144    5.5648 H   0  0  0  0  0  0  0  0  0  0  0  0
  2  1  1  0
  3  2  1  0
  4  3  1  0
  5  4  1  0
  6  5  1  0
  7  6  1  0
  8  7  1  0
 10  8  1  0
 10  9  1  0
 11  1  1  0
 12 11  1  0
 13 12  1  0
 14 13  1  0
 15 14  1  0
 16 15  1  0
 17 16  1  0
 18 16  1  0
 19 18  2  0
 20 18  1  0
  1 21  1  0
  1 22  1  0
  2 23  1  0
  2 24  1  0
  3 25  1  0
  3 26  1  0
  4 27  1  0
  4 28  1  0
  5 29  1  0
  5 30  1  0
  6 31  1  0
  6 32  1  0
  7 33  1  0
  7 34  1  0
  8 35  1  0
  8 36  1  0
  9 37  1  0
  9 38  1  0
  9 39  1  0
 10 40  1  0
 10 41  1  0
 11 42  1  0
 11 43  1  0
 12 44  1  0
 12 45  1  0
 13 46  1  0
 13 47  1  0
 14 48  1  0
 14 49  1  0
 15 50  1  0
 15 51  1  0
 16 52  1  6
 17 53  1  0
 17 54  1  0
 17 55  1  0
M  CHG  1  20  -1
M  END
$$$$
=
     RDKit          3D

 48 50  0  0  0  0  0  0  0  0999 V2000
   15.8570   15.7590    5.8920 C   0  0  0  0  0  0  0  0  0  0  0  0
   15.5850   15.4600    4.4120 C   0  0  0  0  0  0  0  0  0  0  0  0
   14.2130   14.8340    4.1900 C   0  0  0  0  0  0  0  0  0  0  0  0
   12.9680   15.3760    4.4760 C   0  0  0  0  0  0  0  0  0  0  0  0
   11.8350   14.6170    4.1760 C   0  0  0  0  0  0  0  0  0  0  0  0
   11.9580   13.3440    3.5940 C   0  0  0  0  0  0  0  0  0  0  0  0
   13.2160   12.8090    3.2960 C   0  0  0  0  0  0  0  0  0  0  0  0
   14.3400   13.5620    3.5940 C   0  0  0  0  0  0  0  0  0  0  0  0
   15.7450   13.2780    3.3900 C   0  0  0  0  0  0  0  0  0  0  0  0
   16.5060   14.3720    3.8590 C   0  0  0  0  0  0  0  0  0  0  0  0
   17.8890   14.3760    3.7750 C   0  0  0  0  0  0  0  0  0  0  0  0
   18.5190   13.2600    3.2220 C   0  0  0  0  0  0  0  0  0  0  0  0
   17.7670   12.1660    2.7600 C   0  0  0  0  0  0  0  0  0  0  0  0
   16.3710   12.1700    2.8410 C   0  0  0  0  0  0  0  0  0  0  0  0
   17.2560   16.0040    6.1340 O   0  0  0  0  0  0  0  0  0  0  0  0
   18.5680   17.1940    4.8150 N   0  0  0  0  0  0  0  0  0  0  0  0
   17.6800   17.2590    5.8420 C   0  0  0  0  0  0  0  0  0  0  0  0
   17.3090   18.2730    6.4140 O   0  0  0  0  0  0  0  0  0  0  0  0
   20.0400   18.0070    3.0630 C   0  0  0  0  0  0  0  0  0  0  0  0
   19.4010   18.3230    4.4140 C   0  0  2  0  0  0  0  0  0  0  0  0
   20.4400   18.6070    5.5100 C   0  0  0  0  0  0  0  0  0  0  0  0
   21.8430   18.0910    5.1730 C   0  0  0  0  0  0  0  0  0  0  0  0
   22.2840   16.9740    6.1170 C   0  0  0  0  0  0  0  0  0  0  0  0
   21.3850   15.7320    6.1580 C   0  0  0  0  0  0  0  0  0  0  0  0
   21.0960   15.2630    5.0190 O   0  0  0  0  0  0  0  0  0  0  0  0
   21.0370   15.3280    7.3010 O   0  0  0  0  0  1  0  0  0  0  0  0
   15.2821   16.6488    6.1882 H   0  0  0  0  0  0  0  0  0  0  0  0
   15.5537   14.8817    6.4822 H   0  0  0  0  0  0  0  0  0  0  0  0
   15.7122   16.4399    3.9287 H   0  0  0  0  0  0  0  0  0  0  0  0
   12.8762   16.3754    4.9263 H   0  0  0  0  0  0  0  0  0  0  0  0
   10.8357   15.0199    4.3976 H   0  0  0  0  0  0  0  0  0  0  0  0
   11.0531   12.7602    3.3697 H   0  0  0  0  0  0  0  0  0  0  0  0
   13.3103   11.8142    2.8361 H   0  0  0  0  0  0  0  0  0  0  0  0
   18.4744   15.2352    4.1343 H   0  0  0  0  0  0  0  0  0  0  0  0
   19.6162   13.2364    3.1469 H   0  0  0  0  0  0  0  0  0  0  0  0
   18.2833   11.2955    2.3292 H   0  0  0  0  0  0  0  0  0  0  0  0
   15.7835   11.3140    2.4776 H   0  0  0  0  0  0  0  0  0  0  0  0
   18.6569   16.3084    4.2967 H   0  0  0  0  0  0  0  0  0  0  0  0
   21.0156   17.5246    3.2227 H   0  0  0  0  0  0  0  0  0  0  0  0
   19.3842   17.3294    2.4967 H   0  0  0  0  0  0  0  0  0  0  0  0
   20.1804   18.9395    2.4967 H   0  0  0  0  0  0  0  0  0  0  0  0
   18.7999   19.2365    4.2951 H   0  0  0  0  0  0  0  0  0  0  0  0
   20.4967   19.6950    5.6621 H   0  0  0  0  0  0  0  0  0  0  0  0
   20.1090   18.0752    6.4142 H   0  0  0  0  0  0  0  0  0  0  0  0
   21.8416   17.7054    4.1428 H   0  0  0  0  0  0  0  0  0  0  0  0
   22.5484   18.9277    5.2838 H   0  0  0  0  0  0  0  0  0  0  0  0
   23.2896   16.6512    5.8093 H   0  0  0  0  0  0  0  0  0  0  0  0
   22.2384   17.4057    7.1277 H   0  0  0  0  0  0  0  0  0  0  0  0
  2  1  1  0
  3  2  1  0
  4  3  2  0
  5  4  1  0
  6  5  2  0
  7  6  1  0
  8  7  2  0
  8  3  1  0
  9  8  1  0
 10  9  2  0
 10  2  1  0
 11 10  1  0
 12 11  2  0
 13 12  1  0
 14  9  1  0
 14 13  2  0
 15  1  1  0
 17 15  1  0
 17 16  1  0
 18 17  2  0
 20 19  1  0
 20 16  1  0
 21 20  1  0
 22 21  1  0
 23 22  1  0
 24 23  1  0
 25 24  2  0
 26 24  1  0
  1 27  1  0
  1 28  1  0
  2 29  1  0
  4 30  1  0
  5 31  1  0
  6 32  1  0
  7 33  1  0
 11 34  1  0
 12 35  1  0
 13 36  1  0
 14 37  1  0
 16 38  1  0
 19 39  1  0
 19 40  1  0
 19 41  1  0
 20 42  1  6
 21 43  1  0
 21 44  1  0
 22 45  1  0
 22 46  1  0
 23 47  1  0
 23 48  1  0
M  CHG  1  26  -1
M  END
$$$$
=
     RDKit          3D

 35 37  0  0  0  0  0  0  0  0999 V2000
   18.1760   16.5840    4.3490 C   0  0  2  0  0  0  0  0  0  0  0  0
   18.5900   16.6510    2.9620 O   0  0  0  0  0  0  0  0  0  0  0  0
   19.7060   17.3300    2.6090 C   0  0  0  0  0  0  0  0  0  0  0  0
   19.9100   17.6770    1.4490 O   0  0  0  0  0  0  0  0  0  0  0  0
   20.6510   17.6990    3.6960 C   0  0  0  0  0  0  0  0  0  0  0  0
   20.4830   17.2090    4.9950 C   0  0  0  0  0  0  0  0  0  0  0  0
   19.3300   16.2840    5.3030 C   0  0  2  0  0  0  0  0  0  0  0  0
   21.4100   17.5570    5.9890 C   0  0  0  0  0  0  0  0  0  0  0  0
   22.4800   18.4020    5.6930 C   0  0  0  0  0  0  0  0  0  0  0  0
   22.6400   18.8980    4.4000 C   0  0  0  0  0  0  0  0  0  0  0  0
   21.7290   18.5450    3.4020 C   0  0  0  0  0  0  0  0  0  0  0  0
   15.4120   14.0590    3.4880 C   0  0  0  0  0  0  0  0  0  0  0  0
   14.5160   14.2490    4.5390 C   0  0  0  0  0  0  0  0  0  0  0  0
   14.8010   15.1660    5.5470 C   0  0  0  0  0  0  0  0  0  0  0  0
   15.9830   15.9090    5.5080 C   0  0  0  0  0  0  0  0  0  0  0  0
   16.9040   15.7410    4.4640 C   0  0  0  0  0  0  0  0  0  0  0  0
   16.5880   14.8130    3.4480 C   0  0  0  0  0  0  0  0  0  0  0  0
   13.7880   12.4730    2.8140 C   0  0  0  0  0  0  0  0  0  0  0  0
   15.0250   13.1290    2.5600 O   0  0  0  0  0  0  0  0  0  0  0  0
   19.8240   14.8340    5.2760 C   0  0  0  0  0  0  0  0  0  0  0  0
   20.0610   14.3320    4.1440 O   0  0  0  0  0  0  0  0  0  0  0  0
   19.9570   14.3170    6.4270 O   0  0  0  0  0  1  0  0  0  0  0  0
   17.8779   17.5780    4.7138 H   0  0  0  0  0  0  0  0  0  0  0  0
   18.9345   16.4484    6.3162 H   0  0  0  0  0  0  0  0  0  0  0  0
   21.2924   17.1610    7.0085 H   0  0  0  0  0  0  0  0  0  0  0  0
   23.1976   18.6769    6.4801 H   0  0  0  0  0  0  0  0  0  0  0  0
   23.4821   19.5661    4.1663 H   0  0  0  0  0  0  0  0  0  0  0  0
   21.8581   18.9327    2.3807 H   0  0  0  0  0  0  0  0  0  0  0  0
   13.5800   13.6720    4.5720 H   0  0  0  0  0  0  0  0  0  0  0  0
   14.0928   15.3058    6.3770 H   0  0  0  0  0  0  0  0  0  0  0  0
   16.1942   16.6354    6.3066 H   0  0  0  0  0  0  0  0  0  0  0  0
   17.2832   14.6804    2.6059 H   0  0  0  0  0  0  0  0  0  0  0  0
   13.6328   12.3907    3.8999 H   0  0  0  0  0  0  0  0  0  0  0  0
   12.9667   13.0541    2.3692 H   0  0  0  0  0  0  0  0  0  0  0  0
   13.8083   11.4671    2.3692 H   0  0  0  0  0  0  0  0  0  0  0  0
  2  1  1  0
  3  2  1  0
  4  3  2  0
  5  3  1  0
  6  5  2  0
  7  6  1  0
  7  1  1  0
  8  6  1  0
  9  8  2  0
 10  9  1  0
 11  5  1  0
 11 10  2  0
 13 12  2  0
 14 13  1  0
 15 14  2  0
 16 15  1  0
 16  1  1  0
 17 12  1  0
 17 16  2  0
 19 18  1  0
 19 12  1  0
 20  7  1  0
 21 20  2  0
 22 20  1  0
  1 23  1  1
  7 24  1  1
  8 25  1  0
  9 26  1  0
 10 27  1  0
 11 28  1  0
 13 29  1  0
 14 30  1  0
 15 31  1  0
 17 32  1  0
 18 33  1  0
 18 34  1  0
 18 35  1  0
M  CHG  1  22  -1
M  END
$$$$
=
     RDKit          3D

 18 18  0  0  0  0  0  0  0  0999 V2000
   18.1010   14.3010    3.8550 C   0  0  0  0  0  0  0  0  0  0  0  0
   18.0660   13.0340    3.2450 C   0  0  0  0  0  0  0  0  0  0  0  0
   16.8740   12.5140    2.7300 C   0  0  0  0  0  0  0  0  0  0  0  0
   15.7090   13.2620    2.8250 C   0  0  0  0  0  0  0  0  0  0  0  0
   15.7270   14.5140    3.4250 C   0  0  0  0  0  0  0  0  0  0  0  0
   16.9120   15.0370    3.9380 C   0  0  0  0  0  0  0  0  0  0  0  0
   14.5970   15.2310    3.5130 F   0  0  0  0  0  0  0  0  0  0  0  0
   14.5650   12.7630    2.3330 F   0  0  0  0  0  0  0  0  0  0  0  0
   19.7110   14.9960    5.6590 C   0  0  0  0  0  0  0  0  0  0  0  0
   19.3910   14.7840    4.3730 C   0  0  0  0  0  0  0  0  0  0  0  0
   21.2880   15.6390    7.3210 O   0  0  0  0  0  1  0  0  0  0  0  0
   21.0930   15.5030    6.0810 C   0  0  0  0  0  0  0  0  0  0  0  0
   21.8700   15.7240    5.1090 O   0  0  0  0  0  0  0  0  0  0  0  0
   18.9907   12.4428    3.1718 H   0  0  0  0  0  0  0  0  0  0  0  0
   16.8602   11.5222    2.2545 H   0  0  0  0  0  0  0  0  0  0  0  0
   16.9140   16.0308    4.4096 H   0  0  0  0  0  0  0  0  0  0  0  0
   18.9564   14.7993    6.4348 H   0  0  0  0  0  0  0  0  0  0  0  0
   20.1740   14.9929    3.6292 H   0  0  0  0  0  0  0  0  0  0  0  0
  2  1  2  0
  3  2  1  0
  4  3  2  0
  5  4  1  0
  6  5  2  0
  6  1  1  0
  7  5  1  0
  8  4  1  0
 10  1  1  0
 10  9  2  0
 12 11  1  0
 12  9  1  0
 13 12  2  0
  2 14  1  0
  3 15  1  0
  6 16  1  0
  9 17  1  0
 10 18  1  0
M  CHG  1  11  -1
M  END
$$$$
=
     RDKit          3D

 29 30  0  0  0  0  0  0  0  0999 V2000
   11.0000   13.8520    4.0040 C   0  0  0  0  0  0  0  0  0  0  0  0
   10.3810   12.9370    3.1640 C   0  0  0  0  0  0  0  0  0  0  0  0
   11.1710   12.1290    2.3620 C   0  0  0  0  0  0  0  0  0  0  0  0
   10.5270   11.1210    1.4570 C   0  0  0  0  0  0  0  0  0  0  0  0
   12.5240   12.1940    2.3550 N   0  0  0  0  0  0  0  0  0  0  0  0
   13.1370   13.0630    3.1780 C   0  0  0  0  0  0  0  0  0  0  0  0
   12.4090   13.9210    4.0350 C   0  0  0  0  0  0  0  0  0  0  0  0
   13.1030   14.8120    4.8830 C   0  0  0  0  0  0  0  0  0  0  0  0
   14.4880   14.8520    4.8760 C   0  0  0  0  0  0  0  0  0  0  0  0
   15.1360   15.7040    5.6810 F   0  0  0  0  0  0  0  0  0  0  0  0
   15.2120   14.0200    4.0390 C   0  0  0  0  0  0  0  0  0  0  0  0
   14.5390   13.1260    3.1910 C   0  0  0  0  0  0  0  0  0  0  0  0
   15.3380   12.2230    2.2910 C   0  0  0  0  0  0  0  0  0  0  0  0
   10.3290   14.7050    4.8470 O   0  0  0  0  0  0  0  0  0  0  0  0
    9.0700   14.2740    5.4030 C   0  0  0  0  0  0  0  0  0  0  0  0
    8.4240   12.3780    6.6970 O   0  0  0  0  0  1  0  0  0  0  0  0
    9.2580   13.3220    6.6010 C   0  0  0  0  0  0  0  0  0  0  0  0
   10.2640   13.5790    7.3290 O   0  0  0  0  0  0  0  0  0  0  0  0
    9.2845   12.8547    3.1354 H   0  0  0  0  0  0  0  0  0  0  0  0
   10.0327   10.3473    2.0628 H   0  0  0  0  0  0  0  0  0  0  0  0
    9.7812   11.6218    0.8222 H   0  0  0  0  0  0  0  0  0  0  0  0
   11.2949   10.6547    0.8222 H   0  0  0  0  0  0  0  0  0  0  0  0
   12.5404   15.4785    5.5533 H   0  0  0  0  0  0  0  0  0  0  0  0
   16.3113   14.0593    4.0384 H   0  0  0  0  0  0  0  0  0  0  0  0
   15.9438   11.5383    2.9028 H   0  0  0  0  0  0  0  0  0  0  0  0
   14.6545   11.6401    1.6561 H   0  0  0  0  0  0  0  0  0  0  0  0
   15.9998   12.8304    1.6561 H   0  0  0  0  0  0  0  0  0  0  0  0
    8.5093   15.1590    5.7383 H   0  0  0  0  0  0  0  0  0  0  0  0
    8.5243   13.7275    4.6197 H   0  0  0  0  0  0  0  0  0  0  0  0
  2  1  2  0
  3  2  1  0
  4  3  1  0
  5  3  2  0
  6  5  1  0
  7  6  2  0
  7  1  1  0
  8  7  1  0
  9  8  2  0
 10  9  1  0
 11  9  1  0
 12 11  2  0
 12  6  1  0
 13 12  1  0
 14  1  1  0
 15 14  1  0
 17 15  1  0
 17 16  1  0
 18 17  2  0
  2 19  1  0
  4 20  1  0
  4 21  1  0
  4 22  1  0
  8 23  1  0
 11 24  1  0
 13 25  1  0
 13 26  1  0
 13 27  1  0
 15 28  1  0
 15 29  1  0
M  CHG  1  16  -1
M  END
$$$$
=
     RDKit          3D

 26 27  0  0  0  0  0  0  0  0999 V2000
   21.2680   18.0860    5.0570 C   0  0  1  0  0  0  0  0  0  0  0  0
   21.2620   18.1640    3.5440 C   0  0  0  0  0  0  0  0  0  0  0  0
   19.8840   17.6720    3.1820 C   0  0  0  0  0  0  0  0  0  0  0  0
   19.3760   17.8470    2.0810 O   0  0  0  0  0  0  0  0  0  0  0  0
   19.3510   16.9740    4.2670 N   0  0  0  0  0  0  0  0  0  0  0  0
   20.3240   16.9420    5.3470 C   0  0  0  0  0  0  0  0  0  0  0  0
   18.1140   16.2520    4.3390 C   0  0  0  0  0  0  0  0  0  0  0  0
   17.0410   16.8360    5.0490 C   0  0  0  0  0  0  0  0  0  0  0  0
   15.7890   16.2170    5.1630 C   0  0  0  0  0  0  0  0  0  0  0  0
   15.5670   14.9880    4.5630 C   0  0  0  0  0  0  0  0  0  0  0  0
   16.5990   14.3840    3.8550 C   0  0  0  0  0  0  0  0  0  0  0  0
   17.8560   15.0010    3.7460 C   0  0  0  0  0  0  0  0  0  0  0  0
   18.7330   14.2720    2.9920 O   0  0  0  0  0  0  0  0  0  0  0  0
   22.6230   16.8960    6.5660 O   0  0  0  0  0  1  0  0  0  0  0  0
   22.6180   17.8100    5.6940 C   0  0  0  0  0  0  0  0  0  0  0  0
   23.5650   18.5390    5.2940 O   0  0  0  0  0  0  0  0  0  0  0  0
   20.9820   19.0595    5.4818 H   0  0  0  0  0  0  0  0  0  0  0  0
   21.4148   19.1980    3.2013 H   0  0  0  0  0  0  0  0  0  0  0  0
   22.0671   17.5773    3.0775 H   0  0  0  0  0  0  0  0  0  0  0  0
   19.8284   17.0865    6.3183 H   0  0  0  0  0  0  0  0  0  0  0  0
   20.8489   15.9769    5.4017 H   0  0  0  0  0  0  0  0  0  0  0  0
   17.1942   17.8132    5.5303 H   0  0  0  0  0  0  0  0  0  0  0  0
   14.9827   16.7067    5.7287 H   0  0  0  0  0  0  0  0  0  0  0  0
   14.5863   14.4967    4.6460 H   0  0  0  0  0  0  0  0  0  0  0  0
   16.4292   13.4097    3.3735 H   0  0  0  0  0  0  0  0  0  0  0  0
   19.6533   14.6051    2.8428 H   0  0  0  0  0  0  0  0  0  0  0  0
  2  1  1  0
  3  2  1  0
  4  3  2  0
  5  3  1  0
  6  5  1  0
  6  1  1  0
  7  5  1  0
  8  7  2  0
  9  8  1  0
 10  9  2  0
 11 10  1  0
 12 11  2  0
 12  7  1  0
 13 12  1  0
 15  1  1  0
 15 14  1  0
 16 15  2  0
  1 17  1  1
  2 18  1  0
  2 19  1  0
  6 20  1  0
  6 21  1  0
  8 22  1  0
  9 23  1  0
 10 24  1  0
 11 25  1  0
 13 26  1  0
M  CHG  1  14  -1
M  END
$$$$
=
     RDKit          3D

 40 41  0  0  0  0  0  0  0  0999 V2000
   16.4530   14.7220    4.2060 N   0  0  0  0  0  0  0  0  0  0  0  0
   17.2260   13.8080    3.5180 C   0  0  0  0  0  0  0  0  0  0  0  0
   16.4610   12.9370    2.8720 N   0  0  0  0  0  0  0  0  0  0  0  0
   15.1700   13.2660    3.1970 C   0  0  0  0  0  0  0  0  0  0  0  0
   15.1300   14.3690    4.0410 C   0  0  0  0  0  0  0  0  0  0  0  0
   13.9340   14.8950    4.5420 C   0  0  0  0  0  0  0  0  0  0  0  0
   12.7450   14.2700    4.1450 C   0  0  0  0  0  0  0  0  0  0  0  0
   12.7590   13.1700    3.2870 C   0  0  0  0  0  0  0  0  0  0  0  0
   13.9690   12.6550    2.8050 C   0  0  0  0  0  0  0  0  0  0  0  0
   16.9200   15.9030    4.9050 C   0  0  0  0  0  0  0  0  0  0  0  0
   18.4120   15.3740    6.6460 O   0  0  0  0  0  1  0  0  0  0  0  0
   17.1990   15.5770    6.3580 C   0  0  0  0  0  0  0  0  0  0  0  0
   16.1750   15.5010    7.0970 O   0  0  0  0  0  0  0  0  0  0  0  0
   18.7240   13.8100    3.5240 C   0  0  0  0  0  0  0  0  0  0  0  0
   19.1510   15.1900    3.5680 N   0  0  0  0  0  0  0  0  0  0  0  0
   20.3280   15.5900    4.1000 C   0  0  0  0  0  0  0  0  0  0  0  0
   21.1110   14.8790    4.7090 O   0  0  0  0  0  0  0  0  0  0  0  0
   20.4940   16.9110    3.8470 O   0  0  0  0  0  0  0  0  0  0  0  0
   20.8420   17.8300    4.9110 C   0  0  0  0  0  0  0  0  0  0  0  0
   21.8620   18.7900    4.2780 C   0  0  0  0  0  0  0  0  0  0  0  0
   21.5180   17.1040    6.0800 C   0  0  0  0  0  0  0  0  0  0  0  0
   19.6260   18.6430    5.3680 C   0  0  0  0  0  0  0  0  0  0  0  0
   13.9278   15.7622    5.2187 H   0  0  0  0  0  0  0  0  0  0  0  0
   11.7831   14.6533    4.5163 H   0  0  0  0  0  0  0  0  0  0  0  0
   11.8100   12.7024    2.9860 H   0  0  0  0  0  0  0  0  0  0  0  0
   13.9778   11.7861    2.1305 H   0  0  0  0  0  0  0  0  0  0  0  0
   17.8441   16.2643    4.4301 H   0  0  0  0  0  0  0  0  0  0  0  0
   16.1426   16.6796    4.8550 H   0  0  0  0  0  0  0  0  0  0  0  0
   19.0977   13.2718    4.4076 H   0  0  0  0  0  0  0  0  0  0  0  0
   19.1180   13.3085    2.6278 H   0  0  0  0  0  0  0  0  0  0  0  0
   18.5256   15.9068    3.1732 H   0  0  0  0  0  0  0  0  0  0  0  0
   22.4163   19.3117    5.0721 H   0  0  0  0  0  0  0  0  0  0  0  0
   22.5654   18.2186    3.6545 H   0  0  0  0  0  0  0  0  0  0  0  0
   21.3343   19.5267    3.6545 H   0  0  0  0  0  0  0  0  0  0  0  0
   21.1408   17.5091    7.0306 H   0  0  0  0  0  0  0  0  0  0  0  0
   21.2918   16.0290    6.0241 H   0  0  0  0  0  0  0  0  0  0  0  0
   22.6064   17.2531    6.0241 H   0  0  0  0  0  0  0  0  0  0  0  0
   19.5922   18.6656    6.4672 H   0  0  0  0  0  0  0  0  0  0  0  0
   19.7057   19.6701    4.9824 H   0  0  0  0  0  0  0  0  0  0  0  0
   18.7073   18.1768    4.9824 H   0  0  0  0  0  0  0  0  0  0  0  0
  2  1  1  0
  3  2  2  0
  4  3  1  0
  5  4  2  0
  5  1  1  0
  6  5  1  0
  7  6  2  0
  8  7  1  0
  9  8  2  0
  9  4  1  0
 10  1  1  0
 12 10  1  0
 12 11  1  0
 13 12  2  0
 14  2  1  0
 15 14  1  0
 16 15  1  0
 17 16  2  0
 18 16  1  0
 19 18  1  0
 20 19  1  0
 21 19  1  0
 22 19  1  0
  6 23  1  0
  7 24  1  0
  8 25  1  0
  9 26  1  0
 10 27  1  0
 10 28  1  0
 14 29  1  0
 14 30  1  0
 15 31  1  0
 20 32  1  0
 20 33  1  0
 20 34  1  0
 21 35  1  0
 21 36  1  0
 21 37  1  0
 22 38  1  0
 22 39  1  0
 22 40  1  0
M  CHG  1  11  -1
M  END
$$$$
=
     RDKit          3D

 39 40  0  0  0  0  0  0  0  0999 V2000
   17.0360   15.4580    4.5760 C   0  0  0  0  0  0  0  0  0  0  0  0
   15.9010   15.6410    5.3730 C   0  0  0  0  0  0  0  0  0  0  0  0
   14.7390   14.8870    5.1680 C   0  0  0  0  0  0  0  0  0  0  0  0
   14.6640   13.9040    4.1660 C   0  0  0  0  0  0  0  0  0  0  0  0
   15.8160   13.6990    3.3920 C   0  0  0  0  0  0  0  0  0  0  0  0
   16.9790   14.4560    3.5990 C   0  0  0  0  0  0  0  0  0  0  0  0
   18.3110   16.2810    4.7990 C   0  0  0  0  0  0  0  0  0  0  0  0
   18.0990   17.5000    5.7220 C   0  0  0  0  0  0  0  0  0  0  0  0
   19.2760   18.4290    5.4390 C   0  0  0  0  0  0  0  0  0  0  0  0
   19.7300   18.1080    4.0210 C   0  0  0  0  0  0  0  0  0  0  0  0
   18.8050   17.0000    3.5250 C   0  0  0  0  0  0  0  0  0  0  0  0
   19.2490   14.9620    6.5820 O   0  0  0  0  0  1  0  0  0  0  0  0
   19.3960   15.3040    5.3700 C   0  0  0  0  0  0  0  0  0  0  0  0
   20.3190   14.9720    4.5670 O   0  0  0  0  0  0  0  0  0  0  0  0
   13.3770   13.0890    3.9740 C   0  0  0  0  0  0  0  0  0  0  0  0
   13.6540   11.6020    4.2850 C   0  0  0  0  0  0  0  0  0  0  0  0
   12.2820   13.6120    4.9300 C   0  0  0  0  0  0  0  0  0  0  0  0
   12.8010   13.1590    2.5420 C   0  0  0  0  0  0  0  0  0  0  0  0
   15.9217   16.3920    6.1765 H   0  0  0  0  0  0  0  0  0  0  0  0
   13.8625   15.0686    5.8074 H   0  0  0  0  0  0  0  0  0  0  0  0
   15.8073   12.9289    2.6066 H   0  0  0  0  0  0  0  0  0  0  0  0
   17.8664   14.2580    2.9798 H   0  0  0  0  0  0  0  0  0  0  0  0
   17.1480   18.0004    5.4870 H   0  0  0  0  0  0  0  0  0  0  0  0
   18.0521   17.2087    6.7817 H   0  0  0  0  0  0  0  0  0  0  0  0
   18.9596   19.4801    5.5107 H   0  0  0  0  0  0  0  0  0  0  0  0
   20.0888   18.2838    6.1658 H   0  0  0  0  0  0  0  0  0  0  0  0
   19.6394   18.9973    3.3799 H   0  0  0  0  0  0  0  0  0  0  0  0
   20.7841   17.7947    3.9962 H   0  0  0  0  0  0  0  0  0  0  0  0
   19.3539   16.3013    2.8765 H   0  0  0  0  0  0  0  0  0  0  0  0
   17.9705   17.3984    2.9292 H   0  0  0  0  0  0  0  0  0  0  0  0
   13.6815   11.4543    5.3747 H   0  0  0  0  0  0  0  0  0  0  0  0
   12.8559   10.9818    3.8509 H   0  0  0  0  0  0  0  0  0  0  0  0
   14.6219   11.3107    3.8509 H   0  0  0  0  0  0  0  0  0  0  0  0
   12.6012   13.4595    5.9716 H   0  0  0  0  0  0  0  0  0  0  0  0
   12.1196   14.6849    4.7496 H   0  0  0  0  0  0  0  0  0  0  0  0
   11.3454   13.0640    4.7496 H   0  0  0  0  0  0  0  0  0  0  0  0
   11.7101   13.2916    2.5916 H   0  0  0  0  0  0  0  0  0  0  0  0
   13.2497   14.0092    2.0074 H   0  0  0  0  0  0  0  0  0  0  0  0
   13.0330   12.2260    2.0074 H   0  0  0  0  0  0  0  0  0  0  0  0
  2  1  2  0
  3  2  1  0
  4  3  2  0
  5  4  1  0
  6  5  2  0
  6  1  1  0
  7  1  1  0
  8  7  1  0
  9  8  1  0
 10  9  1  0
 11  7  1  0
 11 10  1  0
 13  7  1  0
 13 12  1  0
 14 13  2  0
 15  4  1  0
 16 15  1  0
 17 15  1  0
 18 15  1  0
  2 19  1  0
  3 20  1  0
  5 21  1  0
  6 22  1  0
  8 23  1  0
  8 24  1  0
  9 25  1  0
  9 26  1  0
 10 27  1  0
 10 28  1  0
 11 29  1  0
 11 30  1  0
 16 31  1  0
 16 32  1  0
 16 33  1  0
 17 34  1  0
 17 35  1  0
 17 36  1  0
 18 37  1  0
 18 38  1  0
 18 39  1  0
M  CHG  1  12  -1
M  END
$$$$
=
     RDKit          3D

 46 46  0  0  0  0  0  0  0  0999 V2000
   14.8220   14.3560    4.9830 O   0  0  0  0  0  0  0  0  0  0  0  0
   15.2060   14.1400    3.8340 C   0  0  0  0  0  0  0  0  0  0  0  0
   14.6960   13.1270    3.0530 N   0  0  0  0  0  0  0  0  0  0  0  0
   16.3770   14.9180    3.2160 C   0  0  0  0  0  0  0  0  0  0  0  0
   17.4450   15.1950    4.1490 N   0  0  0  0  0  0  0  0  0  0  0  0
   18.6830   14.6540    4.0260 C   0  0  0  0  0  0  0  0  0  0  0  0
   19.0990   14.0400    3.0540 O   0  0  0  0  0  0  0  0  0  0  0  0
   19.3860   14.8920    5.1530 O   0  0  0  0  0  0  0  0  0  0  0  0
   19.2700   16.2200    5.6610 C   0  0  0  0  0  0  0  0  0  0  0  0
   20.5000   17.0410    5.3380 C   0  0  0  0  0  0  0  0  0  0  0  0
   20.5820   17.8460    4.1920 C   0  0  0  0  0  0  0  0  0  0  0  0
   21.7380   18.5800    3.9190 C   0  0  0  0  0  0  0  0  0  0  0  0
   22.8280   18.5170    4.7840 C   0  0  0  0  0  0  0  0  0  0  0  0
   22.7630   17.7170    5.9240 C   0  0  0  0  0  0  0  0  0  0  0  0
   21.6080   16.9820    6.1980 C   0  0  0  0  0  0  0  0  0  0  0  0
   13.7070   12.1960    3.5540 C   0  0  0  0  0  0  0  0  0  0  0  0
   12.3240   12.8550    3.6310 C   0  0  0  0  0  0  0  0  0  0  0  0
   11.5700   12.9660    2.6690 O   0  0  0  0  0  0  0  0  0  0  0  0
   12.0320   13.3930    4.8740 N   0  0  0  0  0  0  0  0  0  0  0  0
   10.9340   14.3450    5.0470 C   0  0  0  0  0  0  0  0  0  0  0  0
    9.8630   13.8290    6.0270 C   0  0  0  0  0  0  0  0  0  0  0  0
   10.1280   13.5170    7.1840 O   0  0  0  0  0  0  0  0  0  0  0  0
    8.6140   13.7680    5.4760 N   0  0  0  0  0  0  0  0  0  0  0  0
    7.4130   13.1940    6.0830 C   0  0  0  0  0  0  0  0  0  0  0  0
    7.3110   11.6790    5.7540 C   0  0  0  0  0  0  0  0  0  0  0  0
    6.7860   11.4290    4.6130 O   0  0  0  0  0  0  0  0  0  0  0  0
    7.7390   10.8780    6.6220 O   0  0  0  0  0  1  0  0  0  0  0  0
   15.0282   13.0287    2.0830 H   0  0  0  0  0  0  0  0  0  0  0  0
   16.7869   14.3264    2.3841 H   0  0  0  0  0  0  0  0  0  0  0  0
   15.9795   15.8884    2.8838 H   0  0  0  0  0  0  0  0  0  0  0  0
   17.2589   15.8288    4.9393 H   0  0  0  0  0  0  0  0  0  0  0  0
   18.3895   16.7008    5.2098 H   0  0  0  0  0  0  0  0  0  0  0  0
   19.1657   16.1658    6.7547 H   0  0  0  0  0  0  0  0  0  0  0  0
   19.7272   17.8995    3.5017 H   0  0  0  0  0  0  0  0  0  0  0  0
   21.7881   19.2097    3.0184 H   0  0  0  0  0  0  0  0  0  0  0  0
   23.7375   19.0968    4.5682 H   0  0  0  0  0  0  0  0  0  0  0  0
   23.6226   17.6648    6.6083 H   0  0  0  0  0  0  0  0  0  0  0  0
   21.5658   16.3500    7.0973 H   0  0  0  0  0  0  0  0  0  0  0  0
   13.6554   11.3282    2.8800 H   0  0  0  0  0  0  0  0  0  0  0  0
   14.0024   11.8801    4.5654 H   0  0  0  0  0  0  0  0  0  0  0  0
   12.5972   13.1183    5.6901 H   0  0  0  0  0  0  0  0  0  0  0  0
   11.3426   15.2899    5.4346 H   0  0  0  0  0  0  0  0  0  0  0  0
   10.4539   14.4873    4.0676 H   0  0  0  0  0  0  0  0  0  0  0  0
    8.5067   14.1687    4.5332 H   0  0  0  0  0  0  0  0  0  0  0  0
    7.4601   13.3256    7.1741 H   0  0  0  0  0  0  0  0  0  0  0  0
    6.5284   13.7074    5.6782 H   0  0  0  0  0  0  0  0  0  0  0  0
  2  1  2  0
  3  2  1  0
  4  2  1  0
  5  4  1  0
  6  5  1  0
  7  6  2  0
  8  6  1  0
  9  8  1  0
 10  9  1  0
 11 10  2  0
 12 11  1  0
 13 12  2  0
 14 13  1  0
 15 10  1  0
 15 14  2  0
 16  3  1  0
 17 16  1  0
 18 17  2  0
 19 17  1  0
 20 19  1  0
 21 20  1  0
 22 21  2  0
 23 21  1  0
 24 23  1  0
 25 24  1  0
 26 25  2  0
 27 25  1  0
  3 28  1  0
  4 29  1  0
  4 30  1  0
  5 31  1  0
  9 32  1  0
  9 33  1  0
 11 34  1  0
 12 35  1  0
 13 36  1  0
 14 37  1  0
 15 38  1  0
 16 39  1  0
 16 40  1  0
 19 41  1  0
 20 42  1  0
 20 43  1  0
 23 44  1  0
 24 45  1  0
 24 46  1  0
M  CHG  1  27  -1
M  END
$$$$
=
     RDKit          3D

 42 43  0  0  0  0  0  0  0  0999 V2000
   20.8010   17.5360    5.0630 C   0  0  1  0  0  0  0  0  0  0  0  0
   21.9640   17.9170    4.1350 C   0  0  0  0  0  0  0  0  0  0  0  0
   20.1970   18.8070    5.6980 C   0  0  0  0  0  0  0  0  0  0  0  0
   18.7210   18.5020    5.9710 C   0  0  0  0  0  0  0  0  0  0  0  0
   18.4450   17.1010    5.4000 C   0  0  2  0  0  0  0  0  0  0  0  0
   19.5690   16.8870    4.3430 C   0  0  0  0  0  0  0  0  0  0  0  0
   19.2370   17.5940    3.0060 C   0  0  0  0  0  0  0  0  0  0  0  0
   19.7530   15.3920    4.0310 C   0  0  0  0  0  0  0  0  0  0  0  0
   22.6090   16.8540    6.4980 O   0  0  0  0  0  1  0  0  0  0  0  0
   21.4100   16.6080    6.1760 C   0  0  0  0  0  0  0  0  0  0  0  0
   20.6530   15.6990    6.6230 O   0  0  0  0  0  0  0  0  0  0  0  0
   16.9990   16.9270    4.9090 C   0  0  0  0  0  0  0  0  0  0  0  0
   16.2590   15.8250    5.6760 C   0  0  0  0  0  0  0  0  0  0  0  0
   15.5380   14.8840    4.7400 C   0  0  0  0  0  0  0  0  0  0  0  0
   14.1720   14.6250    4.9080 C   0  0  0  0  0  0  0  0  0  0  0  0
   13.5080   13.7430    4.0540 C   0  0  0  0  0  0  0  0  0  0  0  0
   14.2050   13.1090    3.0270 C   0  0  0  0  0  0  0  0  0  0  0  0
   15.5660   13.3560    2.8550 C   0  0  0  0  0  0  0  0  0  0  0  0
   16.2310   14.2370    3.7090 C   0  0  0  0  0  0  0  0  0  0  0  0
   22.8371   18.2030    4.7398 H   0  0  0  0  0  0  0  0  0  0  0  0
   22.2235   17.0569    3.5003 H   0  0  0  0  0  0  0  0  0  0  0  0
   21.6643   18.7639    3.5003 H   0  0  0  0  0  0  0  0  0  0  0  0
   20.7156   19.0443    6.6386 H   0  0  0  0  0  0  0  0  0  0  0  0
   20.3055   19.6738    5.0296 H   0  0  0  0  0  0  0  0  0  0  0  0
   18.5253   18.5153    7.0534 H   0  0  0  0  0  0  0  0  0  0  0  0
   18.0690   19.2547    5.5037 H   0  0  0  0  0  0  0  0  0  0  0  0
   18.4930   16.3039    6.1565 H   0  0  0  0  0  0  0  0  0  0  0  0
   18.7778   18.5720    3.2125 H   0  0  0  0  0  0  0  0  0  0  0  0
   20.1617   17.7379    2.4278 H   0  0  0  0  0  0  0  0  0  0  0  0
   18.5357   16.9744    2.4278 H   0  0  0  0  0  0  0  0  0  0  0  0
   19.8226   14.8269    4.9722 H   0  0  0  0  0  0  0  0  0  0  0  0
   18.8926   15.0303    3.4489 H   0  0  0  0  0  0  0  0  0  0  0  0
   20.6754   15.2497    3.4489 H   0  0  0  0  0  0  0  0  0  0  0  0
   16.4612   17.8768    5.0455 H   0  0  0  0  0  0  0  0  0  0  0  0
   17.0336   16.6373    3.8484 H   0  0  0  0  0  0  0  0  0  0  0  0
   16.9874   15.2512    6.2678 H   0  0  0  0  0  0  0  0  0  0  0  0
   15.5118   16.3017    6.3275 H   0  0  0  0  0  0  0  0  0  0  0  0
   13.6182   15.1204    5.7191 H   0  0  0  0  0  0  0  0  0  0  0  0
   12.4342   13.5482    4.1916 H   0  0  0  0  0  0  0  0  0  0  0  0
   13.6818   12.4147    2.3531 H   0  0  0  0  0  0  0  0  0  0  0  0
   16.1168   12.8557    2.0448 H   0  0  0  0  0  0  0  0  0  0  0  0
   17.3062   14.4245    3.5716 H   0  0  0  0  0  0  0  0  0  0  0  0
  2  1  1  0
  3  1  1  0
  4  3  1  0
  5  4  1  0
  6  5  1  0
  6  1  1  0
  7  6  1  0
  8  6  1  0
  1 10  1  1
 10  9  1  0
 11 10  2  0
 12  5  1  0
 13 12  1  0
 14 13  1  0
 15 14  2  0
 16 15  1  0
 17 16  2  0
 18 17  1  0
 19 18  2  0
 19 14  1  0
  2 20  1  0
  2 21  1  0
  2 22  1  0
  3 23  1  0
  3 24  1  0
  4 25  1  0
  4 26  1  0
  5 27  1  1
  7 28  1  0
  7 29  1  0
  7 30  1  0
  8 31  1  0
  8 32  1  0
  8 33  1  0
 12 34  1  0
 12 35  1  0
 13 36  1  0
 13 37  1  0
 15 38  1  0
 16 39  1  0
 17 40  1  0
 18 41  1  0
 19 42  1  0
M  CHG  1   9  -1
M  END
$$$$
=
     RDKit          3D

 37 38  0  0  0  0  0  0  0  0999 V2000
   19.9020   16.8610    2.6760 C   0  0  0  0  0  0  0  0  0  0  0  0
   19.6710   16.2800    4.0750 C   0  0  1  0  0  0  0  0  0  0  0  0
   20.9290   15.6450    4.6950 C   0  0  0  0  0  0  0  0  0  0  0  0
   21.8760   16.5160    5.5170 C   0  0  0  0  0  0  0  0  0  0  0  0
   22.1010   17.9270    4.9990 C   0  0  0  0  0  0  0  0  0  0  0  0
   20.8860   18.8570    5.0390 C   0  0  0  0  0  0  0  0  0  0  0  0
   19.6210   18.2890    5.6710 C   0  0  0  0  0  0  0  0  0  0  0  0
   18.9360   17.2030    4.9680 N   0  0  0  0  0  0  0  0  0  0  0  0
   17.6400   16.9240    5.4480 C   0  0  0  0  0  0  0  0  0  0  0  0
   17.1400   17.5060    6.4110 O   0  0  0  0  0  0  0  0  0  0  0  0
   16.8250   15.8940    4.7730 C   0  0  0  0  0  0  0  0  0  0  0  0
   15.4340   15.9560    4.8710 C   0  0  0  0  0  0  0  0  0  0  0  0
   14.6600   14.9600    4.2730 C   0  0  0  0  0  0  0  0  0  0  0  0
   15.2610   13.9050    3.5620 C   0  0  0  0  0  0  0  0  0  0  0  0
   16.6630   13.8870    3.4460 C   0  0  0  0  0  0  0  0  0  0  0  0
   17.4450   14.8790    4.0420 C   0  0  0  0  0  0  0  0  0  0  0  0
   14.4180   12.8100    2.9340 C   0  0  0  0  0  0  0  0  0  0  0  0
   13.1560   12.9160    3.0490 O   0  0  0  0  0  0  0  0  0  0  0  0
   15.0360   11.8760    2.3330 O   0  0  0  0  0  1  0  0  0  0  0  0
   20.3071   17.8799    2.7644 H   0  0  0  0  0  0  0  0  0  0  0  0
   20.6170   16.2283    2.1297 H   0  0  0  0  0  0  0  0  0  0  0  0
   18.9478   16.8919    2.1297 H   0  0  0  0  0  0  0  0  0  0  0  0
   18.9901   15.4267    3.9403 H   0  0  0  0  0  0  0  0  0  0  0  0
   20.5876   14.8322    5.3529 H   0  0  0  0  0  0  0  0  0  0  0  0
   21.5323   15.3547    3.8222 H   0  0  0  0  0  0  0  0  0  0  0  0
   21.4653   16.5924    6.5346 H   0  0  0  0  0  0  0  0  0  0  0  0
   22.8566   16.0204    5.4638 H   0  0  0  0  0  0  0  0  0  0  0  0
   22.8961   18.3855    5.6053 H   0  0  0  0  0  0  0  0  0  0  0  0
   22.3549   17.8157    3.9345 H   0  0  0  0  0  0  0  0  0  0  0  0
   21.1701   19.7552    5.6070 H   0  0  0  0  0  0  0  0  0  0  0  0
   20.6279   19.0475    3.9868 H   0  0  0  0  0  0  0  0  0  0  0  0
   19.8924   17.9142    6.6689 H   0  0  0  0  0  0  0  0  0  0  0  0
   18.9049   19.1238    5.6566 H   0  0  0  0  0  0  0  0  0  0  0  0
   14.9521   16.7821    5.4145 H   0  0  0  0  0  0  0  0  0  0  0  0
   13.5641   15.0005    4.3589 H   0  0  0  0  0  0  0  0  0  0  0  0
   17.1500   13.0806    2.8781 H   0  0  0  0  0  0  0  0  0  0  0  0
   18.5398   14.8607    3.9363 H   0  0  0  0  0  0  0  0  0  0  0  0
  2  1  1  0
  3  2  1  0
  4  3  1  0
  5  4  1  0
  6  5  1  0
  7  6  1  0
  8  2  1  0
  8  7  1  0
  9  8  1  0
 10  9  2  0
 11  9  1  0
 12 11  2  0
 13 12  1  0
 14 13  2  0
 15 14  1  0
 16 15  2  0
 16 11  1  0
 17 14  1  0
 18 17  2  0
 19 17  1  0
  1 20  1  0
  1 21  1  0
  1 22  1  0
  2 23  1  6
  3 24  1  0
  3 25  1  0
  4 26  1  0
  4 27  1  0
  5 28  1  0
  5 29  1  0
  6 30  1  0
  6 31  1  0
  7 32  1  0
  7 33  1  0
 12 34  1  0
 13 35  1  0
 15 36  1  0
 16 37  1  0
M  CHG  1  19  -1
M  END
$$$$
=
     RDKit          3D

 20 20  0  0  0  0  0  0  0  0999 V2000
   20.8410   17.4780    5.6800 N   0  0  0  0  0  4  0  0  0  0  0  0
   19.5260   17.0390    5.1390 C   0  0  0  0  0  0  0  0  0  0  0  0
   19.8640   17.7990    3.8620 C   0  0  0  0  0  0  0  0  0  0  0  0
   21.3210   17.6280    4.2810 C   0  0  0  0  0  0  0  0  0  0  0  0
   19.5220   17.0550    2.6340 C   0  0  0  0  0  0  0  0  0  0  0  0
   19.4910   15.7960    2.7380 O   0  0  0  0  0  0  0  0  0  0  0  0
   19.3410   17.7480    1.5940 O   0  0  0  0  0  1  0  0  0  0  0  0
   20.5500   15.2080    6.5550 C   0  0  0  0  0  0  0  0  0  0  0  0
   21.5180   16.3660    6.3870 C   0  0  0  0  0  0  0  0  0  0  0  0
   20.9258   18.2502    6.3563 H   0  0  0  0  0  0  0  0  0  0  0  0
   19.4240   15.9513    5.0108 H   0  0  0  0  0  0  0  0  0  0  0  0
   18.5888   17.2196    5.6859 H   0  0  0  0  0  0  0  0  0  0  0  0
   19.4242   18.7768    3.6159 H   0  0  0  0  0  0  0  0  0  0  0  0
   21.8142   16.7356    3.8682 H   0  0  0  0  0  0  0  0  0  0  0  0
   22.0886   18.3684    4.0116 H   0  0  0  0  0  0  0  0  0  0  0  0
   20.3899   15.0164    7.6263 H   0  0  0  0  0  0  0  0  0  0  0  0
   19.5904   15.4604    6.0802 H   0  0  0  0  0  0  0  0  0  0  0  0
   20.9686   14.3084    6.0802 H   0  0  0  0  0  0  0  0  0  0  0  0
   21.8525   16.7106    7.3766 H   0  0  0  0  0  0  0  0  0  0  0  0
   22.3875   16.0345    5.8005 H   0  0  0  0  0  0  0  0  0  0  0  0
  2  1  1  0
  3  2  1  0
  4  3  1  0
  4  1  1  0
  5  3  1  0
  6  5  2  0
  7  5  1  0
  9  8  1  0
  9  1  1  0
  1 10  1  0
  2 11  1  0
  2 12  1  0
  3 13  1  0
  4 14  1  0
  4 15  1  0
  8 16  1  0
  8 17  1  0
  8 18  1  0
  9 19  1  0
  9 20  1  0
M  CHG  2   1   1   7  -1
M  END
$$$$
=
     RDKit          3D

 43 46  0  0  0  0  0  0  0  0999 V2000
   15.8480   13.7000    3.6720 C   0  0  0  0  0  0  0  0  0  0  0  0
   15.5630   12.7570    2.6800 C   0  0  0  0  0  0  0  0  0  0  0  0
   14.2430   12.3970    2.4040 C   0  0  0  0  0  0  0  0  0  0  0  0
   13.2000   12.9950    3.1090 C   0  0  0  0  0  0  0  0  0  0  0  0
   13.5040   13.9640    4.0780 C   0  0  0  0  0  0  0  0  0  0  0  0
   14.8210   14.3550    4.3630 C   0  0  0  0  0  0  0  0  0  0  0  0
   15.1080   15.3970    5.4040 C   0  0  0  0  0  0  0  0  0  0  0  0
   12.4580   14.5850    4.8160 O   0  0  0  0  0  0  0  0  0  0  0  0
   11.1150   14.2720    4.6270 C   0  0  0  0  0  0  0  0  0  0  0  0
   10.2160   14.8030    5.2690 O   0  0  0  0  0  0  0  0  0  0  0  0
   10.8460   13.2590    3.6070 C   0  0  0  0  0  0  0  0  0  0  0  0
   11.8050   12.6650    2.8950 C   0  0  0  0  0  0  0  0  0  0  0  0
   11.2500   11.6740    1.9330 C   0  0  0  0  0  0  0  0  0  0  0  0
    9.7520   12.0060    1.9510 C   0  0  0  0  0  0  0  0  0  0  0  0
    9.4880   12.7730    3.2510 C   0  0  0  0  0  0  0  0  0  0  0  0
   17.1630   14.0130    3.9000 O   0  0  0  0  0  0  0  0  0  0  0  0
   17.5170   15.2780    3.3050 C   0  0  0  0  0  0  0  0  0  0  0  0
   19.4430   17.6470    2.0290 C   0  0  0  0  0  0  0  0  0  0  0  0
   19.5610   16.8490    3.2650 C   0  0  0  0  0  0  0  0  0  0  0  0
   20.6370   17.1250    4.0480 O   0  0  0  0  0  0  0  0  0  0  0  0
   20.5700   16.3050    5.1440 C   0  0  0  0  0  0  0  0  0  0  0  0
   19.4450   15.5070    5.0450 C   0  0  0  0  0  0  0  0  0  0  0  0
   18.7830   15.8550    3.8350 C   0  0  0  0  0  0  0  0  0  0  0  0
   21.6060   16.2670    6.3460 C   0  0  0  0  0  0  0  0  0  0  0  0
   21.3510   15.4410    7.2790 O   0  0  0  0  0  0  0  0  0  0  0  0
   22.5940   17.0610    6.2820 O   0  0  0  0  0  1  0  0  0  0  0  0
   16.3849   12.2955    2.1130 H   0  0  0  0  0  0  0  0  0  0  0  0
   14.0265   11.6435    1.6323 H   0  0  0  0  0  0  0  0  0  0  0  0
   14.9871   14.9580    6.4053 H   0  0  0  0  0  0  0  0  0  0  0  0
   16.1396   15.7599    5.2849 H   0  0  0  0  0  0  0  0  0  0  0  0
   14.4077   16.2369    5.2849 H   0  0  0  0  0  0  0  0  0  0  0  0
   11.6767   11.8116    0.9285 H   0  0  0  0  0  0  0  0  0  0  0  0
   11.4734   10.6299    2.1975 H   0  0  0  0  0  0  0  0  0  0  0  0
    9.4912   12.6294    1.0831 H   0  0  0  0  0  0  0  0  0  0  0  0
    9.1428   11.0915    1.8998 H   0  0  0  0  0  0  0  0  0  0  0  0
    8.7945   13.6108    3.0864 H   0  0  0  0  0  0  0  0  0  0  0  0
    9.0160   12.1640    4.0361 H   0  0  0  0  0  0  0  0  0  0  0  0
   17.6289   15.1325    2.2204 H   0  0  0  0  0  0  0  0  0  0  0  0
   16.7125   15.9861    3.5525 H   0  0  0  0  0  0  0  0  0  0  0  0
   19.2866   18.7044    2.2888 H   0  0  0  0  0  0  0  0  0  0  0  0
   20.3657   17.5471    1.4385 H   0  0  0  0  0  0  0  0  0  0  0  0
   18.5887   17.2843    1.4385 H   0  0  0  0  0  0  0  0  0  0  0  0
   19.1217   14.7440    5.7684 H   0  0  0  0  0  0  0  0  0  0  0  0
  2  1  2  0
  3  2  1  0
  4  3  2  0
  5  4  1  0
  6  5  2  0
  6  1  1  0
  7  6  1  0
  8  5  1  0
  9  8  1  0
 10  9  2  0
 11  9  1  0
 12 11  2  0
 12  4  1  0
 13 12  1  0
 14 13  1  0
 15 14  1  0
 15 11  1  0
 16  1  1  0
 17 16  1  0
 19 18  1  0
 20 19  1  0
 21 20  1  0
 22 21  2  0
 23 22  1  0
 23 17  1  0
 23 19  2  0
 24 21  1  0
 25 24  2  0
 26 24  1  0
  2 27  1  0
  3 28  1  0
  7 29  1  0
  7 30  1  0
  7 31  1  0
 13 32  1  0
 13 33  1  0
 14 34  1  0
 14 35  1  0
 15 36  1  0
 15 37  1  0
 17 38  1  0
 17 39  1  0
 18 40  1  0
 18 41  1  0
 18 42  1  0
 22 43  1  0
M  CHG  1  26  -1
M  END
$$$$
=
     RDKit          3D

 44 46  0  0  0  0  0  0  0  0999 V2000
   23.9480   26.3450   13.7040 N   0  0  0  0  0  0  0  0  0  0  0  0
   23.0090   25.5230   13.0950 C   0  0  0  0  0  0  0  0  0  0  0  0
   23.2080   24.7460   12.0240 C   0  0  0  0  0  0  0  0  0  0  0  0
   24.5350   24.7460   11.4030 C   0  0  0  0  0  0  0  0  0  0  0  0
   24.8120   24.1820   10.3510 O   0  0  0  0  0  0  0  0  0  0  0  0
   25.5880   25.5400   12.0870 C   0  0  0  0  0  0  0  0  0  0  0  0
   25.2690   26.3400   13.2060 C   0  0  0  0  0  0  0  0  0  0  0  0
   26.3100   27.1170   13.7510 C   0  0  0  0  0  0  0  0  0  0  0  0
   27.6170   27.1210   13.2220 C   0  0  0  0  0  0  0  0  0  0  0  0
   27.8710   26.2810   12.1260 C   0  0  0  0  0  0  0  0  0  0  0  0
   26.8810   25.4980   11.5580 C   0  0  0  0  0  0  0  0  0  0  0  0
   29.0750   26.3040   11.5290 F   0  0  0  0  0  0  0  0  0  0  0  0
   28.5670   27.9910   13.7910 N   0  0  0  0  0  0  0  0  0  0  0  0
   28.1710   29.3870   14.0900 C   0  0  0  0  0  0  0  0  0  0  0  0
   27.9790   29.6470   15.6060 C   0  0  0  0  0  0  0  0  0  0  0  0
   27.5830   28.3720   16.3270 N   0  0  0  0  0  4  0  0  0  0  0  0
   28.6360   27.2750   16.1960 C   0  0  0  0  0  0  0  0  0  0  0  0
   29.3880   27.3530   14.8440 C   0  0  0  0  0  0  0  0  0  0  0  0
   27.1160   28.5810   17.7250 C   0  0  0  0  0  0  0  0  0  0  0  0
   22.0660   23.8990   11.5140 C   0  0  0  0  0  0  0  0  0  0  0  0
   21.6500   24.2110   10.3590 O   0  0  0  0  0  0  0  0  0  0  0  0
   21.6080   23.0530   12.3320 O   0  0  0  0  0  1  0  0  0  0  0  0
   22.8430   26.2210   15.9070 C   0  0  0  0  0  0  0  0  0  0  0  0
   23.5860   27.1000   14.9130 C   0  0  0  0  0  0  0  0  0  0  0  0
   22.0017   25.5093   13.5368 H   0  0  0  0  0  0  0  0  0  0  0  0
   26.0941   27.7473   14.6263 H   0  0  0  0  0  0  0  0  0  0  0  0
   27.1094   24.8495   10.6993 H   0  0  0  0  0  0  0  0  0  0  0  0
   28.9539   30.0622   13.7143 H   0  0  0  0  0  0  0  0  0  0  0  0
   27.2039   29.5687   13.5984 H   0  0  0  0  0  0  0  0  0  0  0  0
   28.9222   30.0224   16.0295 H   0  0  0  0  0  0  0  0  0  0  0  0
   27.1775   30.3889   15.7371 H   0  0  0  0  0  0  0  0  0  0  0  0
   26.7478   28.0287   15.8315 H   0  0  0  0  0  0  0  0  0  0  0  0
   29.3637   27.3813   17.0141 H   0  0  0  0  0  0  0  0  0  0  0  0
   28.1230   26.3032   16.2446 H   0  0  0  0  0  0  0  0  0  0  0  0
   30.3078   27.9402   14.9822 H   0  0  0  0  0  0  0  0  0  0  0  0
   29.6171   26.3264   14.5220 H   0  0  0  0  0  0  0  0  0  0  0  0
   27.8899   28.2346   18.4258 H   0  0  0  0  0  0  0  0  0  0  0  0
   26.9234   29.6512   17.8911 H   0  0  0  0  0  0  0  0  0  0  0  0
   26.1896   28.0116   17.8911 H   0  0  0  0  0  0  0  0  0  0  0  0
   23.1015   26.5268   16.9316 H   0  0  0  0  0  0  0  0  0  0  0  0
   21.7591   26.3300   15.7542 H   0  0  0  0  0  0  0  0  0  0  0  0
   23.1310   25.1704   15.7542 H   0  0  0  0  0  0  0  0  0  0  0  0
   22.9414   27.9449   14.6291 H   0  0  0  0  0  0  0  0  0  0  0  0
   24.5099   27.4606   15.3888 H   0  0  0  0  0  0  0  0  0  0  0  0
  2  1  1  0
  3  2  2  0
  4  3  1  0
  5  4  2  0
  6  4  1  0
  7  6  2  0
  7  1  1  0
  8  7  1  0
  9  8  2  0
 10  9  1  0
 11  6  1  0
 11 10  2  0
 12 10  1  0
 13  9  1  0
 14 13  1  0
 15 14  1  0
 16 15  1  0
 17 16  1  0
 18 17  1  0
 18 13  1  0
 19 16  1  0
 20  3  1  0
 21 20  2  0
 22 20  1  0
 24 23  1  0
 24  1  1  0
  2 25  1  0
  8 26  1  0
 11 27  1  0
 14 28  1  0
 14 29  1  0
 15 30  1  0
 15 31  1  0
 16 32  1  0
 17 33  1  0
 17 34  1  0
 18 35  1  0
 18 36  1  0
 19 37  1  0
 19 38  1  0
 19 39  1  0
 23 40  1  0
 23 41  1  0
 23 42  1  0
 24 43  1  0
 24 44  1  0
M  CHG  2  16   1  22  -1
M  END
$$$$
=
     RDKit          3D

 38 39  0  0  0  0  0  0  0  0999 V2000
   18.4360   15.0850    6.8320 O   0  0  0  0  0  0  0  0  0  0  0  0
   17.8240   15.8810    6.1340 C   0  0  0  0  0  0  0  0  0  0  0  0
   18.3470   16.6910    5.1890 N   0  0  0  0  0  0  0  0  0  0  0  0
   19.7570   16.8240    4.7500 C   0  0  2  0  0  0  0  0  0  0  0  0
   20.6720   17.3170    5.8980 C   0  0  0  0  0  0  0  0  0  0  0  0
   21.3510   18.5910    5.3920 C   0  0  0  0  0  0  0  0  0  0  0  0
   21.2810   18.5050    3.8770 C   0  0  0  0  0  0  0  0  0  0  0  0
   19.9020   17.8960    3.6390 C   0  0  1  0  0  0  0  0  0  0  0  0
   19.6960   17.4120    2.2100 C   0  0  0  0  0  0  0  0  0  0  0  0
   20.3040   15.4000    4.2940 C   0  0  0  0  0  0  0  0  0  0  0  0
   21.4450   15.1170    4.7820 O   0  0  0  0  0  0  0  0  0  0  0  0
   19.5740   14.7190    3.5230 O   0  0  0  0  0  1  0  0  0  0  0  0
   16.4830   16.0830    6.2000 O   0  0  0  0  0  0  0  0  0  0  0  0
   15.8870   16.3590    4.9320 C   0  0  0  0  0  0  0  0  0  0  0  0
   15.2730   15.1050    4.3490 C   0  0  0  0  0  0  0  0  0  0  0  0
   13.9510   14.7600    4.6700 C   0  0  0  0  0  0  0  0  0  0  0  0
   13.3550   13.6280    4.1120 C   0  0  0  0  0  0  0  0  0  0  0  0
   14.0700   12.8310    3.2190 C   0  0  0  0  0  0  0  0  0  0  0  0
   15.3780   13.1700    2.8810 C   0  0  0  0  0  0  0  0  0  0  0  0
   15.9750   14.3020    3.4370 C   0  0  0  0  0  0  0  0  0  0  0  0
   17.6727   17.3015    4.7058 H   0  0  0  0  0  0  0  0  0  0  0  0
   20.0734   17.5353    6.7946 H   0  0  0  0  0  0  0  0  0  0  0  0
   21.4133   16.5524    6.1736 H   0  0  0  0  0  0  0  0  0  0  0  0
   20.8167   19.4822    5.7528 H   0  0  0  0  0  0  0  0  0  0  0  0
   22.3872   18.6751    5.7515 H   0  0  0  0  0  0  0  0  0  0  0  0
   21.3587   19.5021    3.4191 H   0  0  0  0  0  0  0  0  0  0  0  0
   22.0996   17.9182    3.4348 H   0  0  0  0  0  0  0  0  0  0  0  0
   19.0882   18.6318    3.7186 H   0  0  0  0  0  0  0  0  0  0  0  0
   19.2652   16.3999    2.2242 H   0  0  0  0  0  0  0  0  0  0  0  0
   19.0106   18.0949    1.6868 H   0  0  0  0  0  0  0  0  0  0  0  0
   20.6634   17.3915    1.6868 H   0  0  0  0  0  0  0  0  0  0  0  0
   15.1032   17.1203    5.0588 H   0  0  0  0  0  0  0  0  0  0  0  0
   16.6651   16.7253    4.2461 H   0  0  0  0  0  0  0  0  0  0  0  0
   13.3787   15.3882    5.3685 H   0  0  0  0  0  0  0  0  0  0  0  0
   12.3204   13.3645    4.3770 H   0  0  0  0  0  0  0  0  0  0  0  0
   13.6021   11.9364    2.7823 H   0  0  0  0  0  0  0  0  0  0  0  0
   15.9418   12.5437    2.1739 H   0  0  0  0  0  0  0  0  0  0  0  0
   17.0054   14.5674    3.1579 H   0  0  0  0  0  0  0  0  0  0  0  0
  2  1  2  0
  3  2  1  0
  4  3  1  0
  5  4  1  0
  6  5  1  0
  7  6  1  0
  8  7  1  0
  8  4  1  0
  9  8  1  0
  4 10  1  6
 11 10  2  0
 12 10  1  0
 13  2  1  0
 14 13  1  0
 15 14  1  0
 16 15  2  0
 17 16  1  0
 18 17  2  0
 19 18  1  0
 20 19  2  0
 20 15  1  0
  3 21  1  0
  5 22  1  0
  5 23  1  0
  6 24  1  0
  6 25  1  0
  7 26  1  0
  7 27  1  0
  8 28  1  1
  9 29  1  0
  9 30  1  0
  9 31  1  0
 14 32  1  0
 14 33  1  0
 16 34  1  0
 17 35  1  0
 18 36  1  0
 19 37  1  0
 20 38  1  0
M  CHG  1  12  -1
M  END
$$$$
=
     RDKit          3D

 32 33  0  0  0  0  0  0  0  0999 V2000
   18.9970   16.2950    4.2740 N   0  0  0  0  0  0  0  0  0  0  0  0
   18.2130   17.1570    5.0170 C   0  0  0  0  0  0  0  0  0  0  0  0
   18.6300   18.5550    5.8340 S   0  0  0  0  0  0  0  0  0  0  0  0
   16.5620   16.5390    5.0980 S   0  0  0  0  0  0  0  0  0  0  0  0
   16.9110   15.1980    4.0930 C   0  0  0  0  0  0  0  0  0  0  0  0
   16.1070   14.2170    3.6610 C   0  0  0  0  0  0  0  0  0  0  0  0
   18.3570   15.1920    3.7360 C   0  0  0  0  0  0  0  0  0  0  0  0
   18.8690   14.2810    3.0940 O   0  0  0  0  0  0  0  0  0  0  0  0
   14.7150   14.0790    3.9220 C   0  0  0  0  0  0  0  0  0  0  0  0
   13.7370   14.9960    4.2950 C   0  0  0  0  0  0  0  0  0  0  0  0
   12.5010   14.3130    4.3940 C   0  0  0  0  0  0  0  0  0  0  0  0
   12.7680   13.0120    4.0620 C   0  0  0  0  0  0  0  0  0  0  0  0
   14.0810   12.8610    3.7660 O   0  0  0  0  0  0  0  0  0  0  0  0
   20.3920   16.5940    3.8310 C   0  0  1  0  0  0  0  0  0  0  0  0
   20.4290   17.7590    2.7890 C   0  0  0  0  0  0  0  0  0  0  0  0
   21.4290   18.5320    2.8980 O   0  0  0  0  0  0  0  0  0  0  0  0
   19.4660   17.8150    1.9760 O   0  0  0  0  0  1  0  0  0  0  0  0
   21.3610   16.6930    5.0260 C   0  0  0  0  0  0  0  0  0  0  0  0
   20.6570   14.9630    6.7840 C   0  0  0  0  0  0  0  0  0  0  0  0
   21.6550   15.3480    5.7040 C   0  0  0  0  0  0  0  0  0  0  0  0
   16.5715   13.4370    3.0398 H   0  0  0  0  0  0  0  0  0  0  0  0
   13.8970   16.0683    4.4811 H   0  0  0  0  0  0  0  0  0  0  0  0
   11.5277   14.7393    4.6787 H   0  0  0  0  0  0  0  0  0  0  0  0
   12.0220   12.2039    4.0389 H   0  0  0  0  0  0  0  0  0  0  0  0
   20.7871   15.7392    3.2625 H   0  0  0  0  0  0  0  0  0  0  0  0
   22.3115   17.1144    4.6667 H   0  0  0  0  0  0  0  0  0  0  0  0
   20.8735   17.3294    5.7793 H   0  0  0  0  0  0  0  0  0  0  0  0
   21.1037   15.1353    7.7743 H   0  0  0  0  0  0  0  0  0  0  0  0
   19.7493   15.5755    6.6796 H   0  0  0  0  0  0  0  0  0  0  0  0
   20.3958   13.8996    6.6796 H   0  0  0  0  0  0  0  0  0  0  0  0
   22.6539   15.4033    6.1613 H   0  0  0  0  0  0  0  0  0  0  0  0
   21.5864   14.5780    4.9214 H   0  0  0  0  0  0  0  0  0  0  0  0
  2  1  1  0
  3  2  2  0
  4  2  1  0
  5  4  1  0
  6  5  2  0
  7  5  1  0
  7  1  1  0
  8  7  2  0
  9  6  1  0
 10  9  2  0
 11 10  1  0
 12 11  2  0
 13 12  1  0
 13  9  1  0
 14  1  1  0
 15 14  1  0
 16 15  2  0
 17 15  1  0
 18 14  1  0
 20 19  1  0
 20 18  1  0
  6 21  1  0
 10 22  1  0
 11 23  1  0
 12 24  1  0
 14 25  1  6
 18 26  1  0
 18 27  1  0
 19 28  1  0
 19 29  1  0
 19 30  1  0
 20 31  1  0
 20 32  1  0
M  CHG  1  17  -1
M  END
$$$$
=
     RDKit          3D

 57 60  0  0  0  0  0  0  0  0999 V2000
   24.4740   26.2390   14.4830 C   0  0  0  0  0  0  0  0  0  0  0  0
   24.1830   25.3860   15.3260 O   0  0  0  0  0  0  0  0  0  0  0  0
   25.1250   27.3950   14.8100 N   0  0  0  0  0  0  0  0  0  0  0  0
   24.0410   26.0740   13.0210 C   0  0  1  0  0  0  0  0  0  0  0  0
   24.7540   24.8460   12.3870 C   0  0  1  0  0  0  0  0  0  0  0  0
   24.3980   24.5120   10.9330 C   0  0  0  0  0  0  0  0  0  0  0  0
   26.2660   24.8970   12.6000 C   0  0  0  0  0  0  0  0  0  0  0  0
   27.0170   25.9180   11.9950 C   0  0  0  0  0  0  0  0  0  0  0  0
   28.4020   25.9850   12.1660 C   0  0  0  0  0  0  0  0  0  0  0  0
   29.0560   25.0280   12.9390 C   0  0  0  0  0  0  0  0  0  0  0  0
   28.3270   24.0050   13.5360 C   0  0  0  0  0  0  0  0  0  0  0  0
   26.9410   23.9380   13.3680 C   0  0  0  0  0  0  0  0  0  0  0  0
   22.5390   26.2680   12.7670 C   0  0  0  0  0  0  0  0  0  0  0  0
   21.3580   28.0320   11.7390 O   0  0  0  0  0  1  0  0  0  0  0  0
   21.9470   27.6710   12.7940 C   0  0  0  0  0  0  0  0  0  0  0  0
   22.1200   28.3060   13.8730 O   0  0  0  0  0  0  0  0  0  0  0  0
   25.6280   27.6990   16.1270 C   0  0  0  0  0  0  0  0  0  0  0  0
   27.1650   27.8430   16.2060 C   0  0  2  0  0  0  0  0  0  0  0  0
   27.8720   26.4720   16.3510 C   0  0  0  0  0  0  0  0  0  0  0  0
   29.3960   26.6550   16.4770 C   0  0  2  0  0  0  0  0  0  0  0  0
   29.7060   27.5130   17.7140 C   0  0  0  0  0  0  0  0  0  0  0  0
   29.0370   28.8890   17.5780 C   0  0  2  0  0  0  0  0  0  0  0  0
   27.5160   28.7020   17.4510 C   0  0  0  0  0  0  0  0  0  0  0  0
   29.5660   29.5920   16.3180 C   0  0  0  0  0  0  0  0  0  0  0  0
   29.2560   28.7440   15.0760 C   0  0  2  0  0  0  0  0  0  0  0  0
   27.7330   28.5570   14.9520 C   0  0  0  0  0  0  0  0  0  0  0  0
   29.9250   27.3680   15.2210 C   0  0  0  0  0  0  0  0  0  0  0  0
   25.2657   28.0949   14.0675 H   0  0  0  0  0  0  0  0  0  0  0  0
   24.4066   26.9303   12.4352 H   0  0  0  0  0  0  0  0  0  0  0  0
   24.3350   23.9980   12.9486 H   0  0  0  0  0  0  0  0  0  0  0  0
   23.5959   23.7595   10.9155 H   0  0  0  0  0  0  0  0  0  0  0  0
   24.0569   25.4235   10.4204 H   0  0  0  0  0  0  0  0  0  0  0  0
   25.2859   24.1135   10.4204 H   0  0  0  0  0  0  0  0  0  0  0  0
   26.5085   26.6742   11.3789 H   0  0  0  0  0  0  0  0  0  0  0  0
   28.9763   26.7936   11.6902 H   0  0  0  0  0  0  0  0  0  0  0  0
   30.1460   25.0814   13.0768 H   0  0  0  0  0  0  0  0  0  0  0  0
   28.8429   23.2460   14.1425 H   0  0  0  0  0  0  0  0  0  0  0  0
   26.3739   23.1241   13.8435 H   0  0  0  0  0  0  0  0  0  0  0  0
   22.3267   25.8507   11.7716 H   0  0  0  0  0  0  0  0  0  0  0  0
   22.0662   25.7725   13.6278 H   0  0  0  0  0  0  0  0  0  0  0  0
   25.1763   28.6459   16.4577 H   0  0  0  0  0  0  0  0  0  0  0  0
   25.3590   26.8480   16.7699 H   0  0  0  0  0  0  0  0  0  0  0  0
   27.4939   25.9643   17.2506 H   0  0  0  0  0  0  0  0  0  0  0  0
   27.6614   25.8694   15.4551 H   0  0  0  0  0  0  0  0  0  0  0  0
   29.8792   25.6721   16.5789 H   0  0  0  0  0  0  0  0  0  0  0  0
   29.3225   27.0084   18.6131 H   0  0  0  0  0  0  0  0  0  0  0  0
   30.7946   27.6467   17.7979 H   0  0  0  0  0  0  0  0  0  0  0  0
   29.2650   29.4989   18.4646 H   0  0  0  0  0  0  0  0  0  0  0  0
   27.0388   29.6883   17.3541 H   0  0  0  0  0  0  0  0  0  0  0  0
   27.1495   28.1843   18.3497 H   0  0  0  0  0  0  0  0  0  0  0  0
   29.0820   30.5748   16.2185 H   0  0  0  0  0  0  0  0  0  0  0  0
   30.6550   29.7204   16.4057 H   0  0  0  0  0  0  0  0  0  0  0  0
   29.6402   29.2508   14.1785 H   0  0  0  0  0  0  0  0  0  0  0  0
   27.5150   27.9499   14.0610 H   0  0  0  0  0  0  0  0  0  0  0  0
   27.2610   29.5467   14.8641 H   0  0  0  0  0  0  0  0  0  0  0  0
   31.0136   27.4997   15.3083 H   0  0  0  0  0  0  0  0  0  0  0  0
   29.6925   26.7586   14.3352 H   0  0  0  0  0  0  0  0  0  0  0  0
  2  1  2  0
  3  1  1  0
  4  1  1  0
  5  4  1  0
  6  5  1  0
  7  5  1  0
  8  7  2  0
  9  8  1  0
 10  9  2  0
 11 10  1  0
 12  7  1  0
 12 11  2  0
 13  4  1  0
 15 14  1  0
 15 13  1  0
 16 15  2  0
 17  3  1  0
 18 17  1  6
 19 18  1  0
 20 19  1  0
 21 20  1  0
 22 21  1  0
 23 18  1  0
 23 22  1  0
 24 22  1  0
 25 24  1  0
 26 18  1  0
 26 25  1  0
 27 20  1  0
 27 25  1  0
  3 28  1  0
  4 29  1  6
  5 30  1  1
  6 31  1  0
  6 32  1  0
  6 33  1  0
  8 34  1  0
  9 35  1  0
 10 36  1  0
 11 37  1  0
 12 38  1  0
 13 39  1  0
 13 40  1  0
 17 41  1  0
 17 42  1  0
 19 43  1  0
 19 44  1  0
 20 45  1  1
 21 46  1  0
 21 47  1  0
 22 48  1  1
 23 49  1  0
 23 50  1  0
 24 51  1  0
 24 52  1  0
 25 53  1  6
 26 54  1  0
 26 55  1  0
 27 56  1  0
 27 57  1  0
M  CHG  1  14  -1
M  END
$$$$
=
     RDKit          3D

 23 24  0  0  0  0  0  0  0  0999 V2000
   18.8200   15.9530    4.9280 C   0  0  0  0  0  0  0  0  0  0  0  0
   18.1650   17.0110    5.5970 C   0  0  0  0  0  0  0  0  0  0  0  0
   16.7790   17.0900    5.6510 C   0  0  0  0  0  0  0  0  0  0  0  0
   16.0100   16.1080    5.0380 C   0  0  0  0  0  0  0  0  0  0  0  0
   16.6140   15.0430    4.3570 C   0  0  0  0  0  0  0  0  0  0  0  0
   18.0310   14.9490    4.2870 C   0  0  0  0  0  0  0  0  0  0  0  0
   18.5590   13.8470    3.5760 C   0  0  0  0  0  0  0  0  0  0  0  0
   17.7420   12.8880    2.9680 C   0  0  0  0  0  0  0  0  0  0  0  0
   16.3630   12.9990    3.0530 C   0  0  0  0  0  0  0  0  0  0  0  0
   15.8040   14.0710    3.7430 C   0  0  0  0  0  0  0  0  0  0  0  0
   20.3390   15.9780    4.9580 C   0  0  1  0  0  0  0  0  0  0  0  0
   21.0000   17.6550    4.1800 Br  0  0  0  0  0  0  0  0  0  0  0  0
   20.6450   14.5550    6.8770 O   0  0  0  0  0  1  0  0  0  0  0  0
   21.0060   15.6170    6.2910 C   0  0  0  0  0  0  0  0  0  0  0  0
   21.8580   16.4700    6.6960 O   0  0  0  0  0  0  0  0  0  0  0  0
   18.7667   17.7908    6.0868 H   0  0  0  0  0  0  0  0  0  0  0  0
   16.2928   17.9254    6.1762 H   0  0  0  0  0  0  0  0  0  0  0  0
   14.9128   16.1677    5.0882 H   0  0  0  0  0  0  0  0  0  0  0  0
   19.6510   13.7399    3.4981 H   0  0  0  0  0  0  0  0  0  0  0  0
   18.1937   12.0462    2.4227 H   0  0  0  0  0  0  0  0  0  0  0  0
   15.7158   12.2463    2.5792 H   0  0  0  0  0  0  0  0  0  0  0  0
   14.7096   14.1594    3.8092 H   0  0  0  0  0  0  0  0  0  0  0  0
   20.6576   15.1367    4.3250 H   0  0  0  0  0  0  0  0  0  0  0  0
  2  1  2  0
  3  2  1  0
  4  3  2  0
  5  4  1  0
  6  5  2  0
  6  1  1  0
  7  6  1  0
  8  7  2  0
  9  8  1  0
 10  9  2  0
 10  5  1  0
 11  1  1  0
 12 11  1  0
 14 11  1  0
 14 13  1  0
 15 14  2  0
  2 16  1  0
  3 17  1  0
  4 18  1  0
  7 19  1  0
  8 20  1  0
  9 21  1  0
 10 22  1  0
 11 23  1  6
M  CHG  1  13  -1
M  END
$$$$
=
     RDKit          3D

 34 33  0  0  0  0  0  0  0  0999 V2000
   17.3670   17.1250    5.7200 C   0  0  0  0  0  0  0  0  0  0  0  0
   18.8710   17.0900    5.3820 C   0  0  2  0  0  0  0  0  0  0  0  0
   19.1740   17.5760    3.9630 C   0  0  0  0  0  0  0  0  0  0  0  0
   19.4780   15.7030    5.6540 C   0  0  0  0  0  0  0  0  0  0  0  0
   20.9400   15.5170    6.0770 C   0  0  0  0  0  0  0  0  0  0  0  0
   21.7950   15.4340    5.1560 O   0  0  0  0  0  0  0  0  0  0  0  0
   21.1110   15.4730    7.3310 O   0  0  0  0  0  1  0  0  0  0  0  0
   16.8610   15.9900    6.6200 C   0  0  0  0  0  0  0  0  0  0  0  0
   15.6260   15.2730    6.0690 C   0  0  0  0  0  0  0  0  0  0  0  0
   15.2280   15.8270    4.6990 C   0  0  0  0  0  0  0  0  0  0  0  0
   15.4950   14.8060    3.5900 C   0  0  0  0  0  0  0  0  0  0  0  0
   15.1450   12.3460    3.0080 C   0  0  0  0  0  0  0  0  0  0  0  0
   14.5570   13.5980    3.6400 C   0  0  0  0  0  0  0  0  0  0  0  0
   17.1567   18.0781    6.2274 H   0  0  0  0  0  0  0  0  0  0  0  0
   16.8412   17.0047    4.7613 H   0  0  0  0  0  0  0  0  0  0  0  0
   19.3592   17.8059    6.0596 H   0  0  0  0  0  0  0  0  0  0  0  0
   19.7554   18.5086    4.0111 H   0  0  0  0  0  0  0  0  0  0  0  0
   19.7544   16.8092    3.4289 H   0  0  0  0  0  0  0  0  0  0  0  0
   18.2300   17.7596    3.4289 H   0  0  0  0  0  0  0  0  0  0  0  0
   18.8686   15.2529    6.4515 H   0  0  0  0  0  0  0  0  0  0  0  0
   19.4720   15.2513    4.6511 H   0  0  0  0  0  0  0  0  0  0  0  0
   17.6685   15.2520    6.7356 H   0  0  0  0  0  0  0  0  0  0  0  0
   16.5684   16.4449    7.5779 H   0  0  0  0  0  0  0  0  0  0  0  0
   15.8481   14.2001    5.9712 H   0  0  0  0  0  0  0  0  0  0  0  0
   14.7903   15.4348    6.7657 H   0  0  0  0  0  0  0  0  0  0  0  0
   14.1560   16.0735    4.7093 H   0  0  0  0  0  0  0  0  0  0  0  0
   15.8306   16.7251    4.4980 H   0  0  0  0  0  0  0  0  0  0  0  0
   15.3693   15.3055    2.6180 H   0  0  0  0  0  0  0  0  0  0  0  0
   16.5186   14.4296    3.7336 H   0  0  0  0  0  0  0  0  0  0  0  0
   15.4700   11.6540    3.7989 H   0  0  0  0  0  0  0  0  0  0  0  0
   14.3822   11.8574    2.3840 H   0  0  0  0  0  0  0  0  0  0  0  0
   16.0081   12.6210    2.3840 H   0  0  0  0  0  0  0  0  0  0  0  0
   13.6300   13.8548    3.1063 H   0  0  0  0  0  0  0  0  0  0  0  0
   14.3785   13.3710    4.7014 H   0  0  0  0  0  0  0  0  0  0  0  0
  2  1  1  0
  3  2  1  0
  4  2  1  0
  5  4  1  0
  6  5  2  0
  7  5  1  0
  8  1  1  0
  9  8  1  0
 10  9  1  0
 11 10  1  0
 13 12  1  0
 13 11  1  0
  1 14  1  0
  1 15  1  0
  2 16  1  1
  3 17  1  0
  3 18  1  0
  3 19  1  0
  4 20  1  0
  4 21  1  0
  8 22  1  0
  8 23  1  0
  9 24  1  0
  9 25  1  0
 10 26  1  0
 10 27  1  0
 11 28  1  0
 11 29  1  0
 12 30  1  0
 12 31  1  0
 12 32  1  0
 13 33  1  0
 13 34  1  0
M  CHG  1   7  -1
M  END
$$$$
=
     RDKit          3D

 62 64  0  0  0  0  0  0  0  0999 V2000
   24.9180   27.1260   16.4210 N   0  0  0  0  0  0  0  0  0  0  0  0
   26.2480   27.3700   16.5080 C   0  0  0  0  0  0  0  0  0  0  0  0
   26.8100   27.9020   17.4570 O   0  0  0  0  0  0  0  0  0  0  0  0
   24.0620   27.2390   17.5790 C   0  0  0  0  0  0  0  0  0  0  0  0
   21.7740   27.7030   16.8780 O   0  0  0  0  0  0  0  0  0  0  0  0
   22.6330   26.8900   17.2010 C   0  0  0  0  0  0  0  0  0  0  0  0
   22.4860   25.5350   17.1790 O   0  0  0  0  0  0  0  0  0  0  0  0
   21.1320   25.0660   17.3090 C   0  0  0  0  0  0  0  0  0  0  0  0
   20.9240   23.8760   16.3680 C   0  0  1  0  0  0  0  0  0  0  0  0
   22.0330   23.7280   15.4100 N   0  0  0  0  0  0  0  0  0  0  0  0
   21.9510   23.9980   14.0860 C   0  0  0  0  0  0  0  0  0  0  0  0
   21.0190   24.5650   13.5370 O   0  0  0  0  0  0  0  0  0  0  0  0
   23.0670   23.5340   13.4730 O   0  0  0  0  0  0  0  0  0  0  0  0
   24.1580   24.4280   13.1460 C   0  0  0  0  0  0  0  0  0  0  0  0
   23.7580   25.8950   13.3440 C   0  0  0  0  0  0  0  0  0  0  0  0
   25.4280   24.0700   13.9260 C   0  0  0  0  0  0  0  0  0  0  0  0
   24.4190   24.1910   11.6510 C   0  0  0  0  0  0  0  0  0  0  0  0
   20.7360   22.5810   17.2250 C   0  0  0  0  0  0  0  0  0  0  0  0
   20.6810   22.7260   18.4800 O   0  0  0  0  0  0  0  0  0  0  0  0
   20.6360   21.5160   16.5400 O   0  0  0  0  0  1  0  0  0  0  0  0
   26.8670   26.8950   15.4040 O   0  0  0  0  0  0  0  0  0  0  0  0
   27.7370   27.8140   14.7240 C   0  0  0  0  0  0  0  0  0  0  0  0
   28.9970   27.1000   14.2190 C   0  0  0  0  0  0  0  0  0  0  0  0
   29.6660   26.2530   15.3000 C   0  0  0  0  0  0  0  0  0  0  0  0
   30.1810   26.6680   16.5190 C   0  0  0  0  0  0  0  0  0  0  0  0
   30.7570   25.7080   17.3520 C   0  0  0  0  0  0  0  0  0  0  0  0
   30.8160   24.3610   16.9620 C   0  0  0  0  0  0  0  0  0  0  0  0
   30.3010   23.9490   15.7280 C   0  0  0  0  0  0  0  0  0  0  0  0
   29.7270   24.9010   14.9010 C   0  0  0  0  0  0  0  0  0  0  0  0
   29.1260   24.7730   13.5890 C   0  0  0  0  0  0  0  0  0  0  0  0
   28.6860   26.0450   13.1620 C   0  0  0  0  0  0  0  0  0  0  0  0
   28.0890   26.2230   11.9230 C   0  0  0  0  0  0  0  0  0  0  0  0
   27.9130   25.1020   11.1090 C   0  0  0  0  0  0  0  0  0  0  0  0
   28.3380   23.8320   11.5350 C   0  0  0  0  0  0  0  0  0  0  0  0
   28.9510   23.6610   12.7820 C   0  0  0  0  0  0  0  0  0  0  0  0
   24.5108   26.8556   15.5144 H   0  0  0  0  0  0  0  0  0  0  0  0
   24.4119   26.5480   18.3601 H   0  0  0  0  0  0  0  0  0  0  0  0
   24.0953   28.2723   17.9548 H   0  0  0  0  0  0  0  0  0  0  0  0
   20.9486   24.7517   18.3471 H   0  0  0  0  0  0  0  0  0  0  0  0
   20.4323   25.8734   17.0473 H   0  0  0  0  0  0  0  0  0  0  0  0
   20.0206   24.0538   15.7662 H   0  0  0  0  0  0  0  0  0  0  0  0
   22.9370   23.3947   15.7741 H   0  0  0  0  0  0  0  0  0  0  0  0
   23.6976   26.1166   14.4198 H   0  0  0  0  0  0  0  0  0  0  0  0
   24.5112   26.5467   12.8771 H   0  0  0  0  0  0  0  0  0  0  0  0
   22.7782   26.0741   12.8771 H   0  0  0  0  0  0  0  0  0  0  0  0
   25.2238   24.1275   15.0054 H   0  0  0  0  0  0  0  0  0  0  0  0
   25.7421   23.0483   13.6662 H   0  0  0  0  0  0  0  0  0  0  0  0
   26.2295   24.7772   13.6662 H   0  0  0  0  0  0  0  0  0  0  0  0
   25.2286   23.4559   11.5322 H   0  0  0  0  0  0  0  0  0  0  0  0
   23.5039   23.8088   11.1751 H   0  0  0  0  0  0  0  0  0  0  0  0
   24.7114   25.1386   11.1751 H   0  0  0  0  0  0  0  0  0  0  0  0
   27.2021   28.2502   13.8675 H   0  0  0  0  0  0  0  0  0  0  0  0
   28.0377   28.6023   15.4298 H   0  0  0  0  0  0  0  0  0  0  0  0
   29.6209   27.9290   13.8536 H   0  0  0  0  0  0  0  0  0  0  0  0
   30.1366   27.7248   16.8209 H   0  0  0  0  0  0  0  0  0  0  0  0
   31.1697   26.0105   18.3258 H   0  0  0  0  0  0  0  0  0  0  0  0
   31.2727   23.6202   17.6347 H   0  0  0  0  0  0  0  0  0  0  0  0
   30.3507   22.8937   15.4215 H   0  0  0  0  0  0  0  0  0  0  0  0
   27.7631   27.2196   11.5906 H   0  0  0  0  0  0  0  0  0  0  0  0
   27.4366   25.2143   10.1239 H   0  0  0  0  0  0  0  0  0  0  0  0
   28.1871   22.9611   10.8802 H   0  0  0  0  0  0  0  0  0  0  0  0
   29.2858   22.6669   13.1131 H   0  0  0  0  0  0  0  0  0  0  0  0
  2  1  1  0
  3  2  2  0
  4  1  1  0
  6  5  2  0
  6  4  1  0
  7  6  1  0
  8  7  1  0
  9  8  1  0
 10  9  1  0
 11 10  1  0
 12 11  2  0
 13 11  1  0
 14 13  1  0
 15 14  1  0
 16 14  1  0
 17 14  1  0
 18  9  1  0
 19 18  2  0
 20 18  1  0
 21  2  1  0
 22 21  1  0
 23 22  1  0
 24 23  1  0
 25 24  2  0
 26 25  1  0
 27 26  2  0
 28 27  1  0
 29 28  2  0
 29 24  1  0
 30 29  1  0
 31 30  2  0
 31 23  1  0
 32 31  1  0
 33 32  2  0
 34 33  1  0
 35 34  2  0
 35 30  1  0
  1 36  1  0
  4 37  1  0
  4 38  1  0
  8 39  1  0
  8 40  1  0
  9 41  1  6
 10 42  1  0
 15 43  1  0
 15 44  1  0
 15 45  1  0
 16 46  1  0
 16 47  1  0
 16 48  1  0
 17 49  1  0
 17 50  1  0
 17 51  1  0
 22 52  1  0
 22 53  1  0
 23 54  1  0
 25 55  1  0
 26 56  1  0
 27 57  1  0
 28 58  1  0
 32 59  1  0
 33 60  1  0
 34 61  1  0
 35 62  1  0
M  CHG  1  20  -1
M  END
$$$$
=
     RDKit          3D

 84 87  0  0  0  0  0  0  0  0999 V2000
   23.5780   25.5510   13.3190 C   0  0  1  0  0  0  0  0  0  0  0  0
   24.1370   26.3210   12.1190 C   0  0  0  0  0  0  0  0  0  0  0  0
   24.6180   25.2760   14.4370 C   0  0  2  0  0  0  0  0  0  0  0  0
   25.5970   26.3580   14.6580 N   0  0  0  0  0  0  0  0  0  0  0  0
   26.0950   26.7260   15.8590 C   0  0  0  0  0  0  0  0  0  0  0  0
   25.6820   26.3830   16.9560 O   0  0  0  0  0  0  0  0  0  0  0  0
   27.1500   27.5560   15.6610 O   0  0  0  0  0  0  0  0  0  0  0  0
   27.4190   27.8540   14.2810 C   0  0  0  0  0  0  0  0  0  0  0  0
   28.7410   27.1910   13.8830 C   0  0  0  0  0  0  0  0  0  0  0  0
   29.4810   26.5780   15.0690 C   0  0  0  0  0  0  0  0  0  0  0  0
   29.9430   27.2100   16.2150 C   0  0  0  0  0  0  0  0  0  0  0  0
   30.6090   26.4390   17.1680 C   0  0  0  0  0  0  0  0  0  0  0  0
   30.8110   25.0630   16.9680 C   0  0  0  0  0  0  0  0  0  0  0  0
   30.3500   24.4350   15.8070 C   0  0  0  0  0  0  0  0  0  0  0  0
   29.6880   25.1980   14.8590 C   0  0  0  0  0  0  0  0  0  0  0  0
   29.1160   24.8250   13.5830 C   0  0  0  0  0  0  0  0  0  0  0  0
   28.5480   25.9710   12.9850 C   0  0  0  0  0  0  0  0  0  0  0  0
   27.9280   25.9040   11.7450 C   0  0  0  0  0  0  0  0  0  0  0  0
   27.8740   24.6660   11.1020 C   0  0  0  0  0  0  0  0  0  0  0  0
   28.4360   23.5220   11.6940 C   0  0  0  0  0  0  0  0  0  0  0  0
   29.0630   23.5980   12.9420 C   0  0  0  0  0  0  0  0  0  0  0  0
   25.3390   23.9480   14.0340 C   0  0  0  0  0  0  0  0  0  0  0  0
   25.0780   23.4890   12.8860 O   0  0  0  0  0  0  0  0  0  0  0  0
   26.1090   23.4840   14.9320 O   0  0  0  0  0  1  0  0  0  0  0  0
   22.4540   26.3300   13.7820 O   0  0  0  0  0  0  0  0  0  0  0  0
   20.2080   23.5360   13.2490 C   0  0  2  0  0  0  0  0  0  0  0  0
   21.4540   24.2170   13.4980 O   0  0  0  0  0  0  0  0  0  0  0  0
   21.2390   25.5790   13.8610 C   0  0  1  0  0  0  0  0  0  0  0  0
   20.6640   25.6320   15.3040 C   0  0  1  0  0  0  0  0  0  0  0  0
   19.9410   24.3150   15.6710 C   0  0  1  0  0  0  0  0  0  0  0  0
   19.2230   23.7420   14.4340 C   0  0  2  0  0  0  0  0  0  0  0  0
   21.6930   25.8950   16.2850 O   0  0  0  0  0  0  0  0  0  0  0  0
   21.6610   27.1240   16.8630 C   0  0  0  0  0  0  0  0  0  0  0  0
   22.5960   27.6780   17.4250 O   0  0  0  0  0  0  0  0  0  0  0  0
   20.3050   27.7330   16.6820 C   0  0  0  0  0  0  0  0  0  0  0  0
   20.8740   23.3230   16.1690 O   0  0  0  0  0  0  0  0  0  0  0  0
   20.6600   22.8590   17.4270 C   0  0  0  0  0  0  0  0  0  0  0  0
   20.5240   23.5420   18.4320 O   0  0  0  0  0  0  0  0  0  0  0  0
   20.5670   21.3630   17.4150 C   0  0  0  0  0  0  0  0  0  0  0  0
   18.5100   22.5490   14.8260 O   0  0  0  0  0  0  0  0  0  0  0  0
   17.1740   22.5390   14.5760 C   0  0  0  0  0  0  0  0  0  0  0  0
   16.3270   23.1130   15.2460 O   0  0  0  0  0  0  0  0  0  0  0  0
   16.8680   21.6710   13.3940 C   0  0  0  0  0  0  0  0  0  0  0  0
   20.5250   22.0860   12.8640 C   0  0  0  0  0  0  0  0  0  0  0  0
   21.1580   22.0180   11.5740 O   0  0  0  0  0  0  0  0  0  0  0  0
   21.1730   23.7750   10.0320 C   0  0  0  0  0  0  0  0  0  0  0  0
   20.4780   22.5440   10.5270 C   0  0  0  0  0  0  0  0  0  0  0  0
   19.4690   22.0840   10.0110 O   0  0  0  0  0  0  0  0  0  0  0  0
   23.2770   24.5370   13.0169 H   0  0  0  0  0  0  0  0  0  0  0  0
   24.7482   27.1630   12.4761 H   0  0  0  0  0  0  0  0  0  0  0  0
   24.7589   25.6489   11.5095 H   0  0  0  0  0  0  0  0  0  0  0  0
   23.3053   26.7042   11.5095 H   0  0  0  0  0  0  0  0  0  0  0  0
   24.0904   25.2048   15.3996 H   0  0  0  0  0  0  0  0  0  0  0  0
   25.9272   26.8742   13.8301 H   0  0  0  0  0  0  0  0  0  0  0  0
   26.6052   27.4630   13.6526 H   0  0  0  0  0  0  0  0  0  0  0  0
   27.4888   28.9427   14.1398 H   0  0  0  0  0  0  0  0  0  0  0  0
   29.2840   28.0168   13.4002 H   0  0  0  0  0  0  0  0  0  0  0  0
   29.7884   28.2883   16.3675 H   0  0  0  0  0  0  0  0  0  0  0  0
   30.9807   26.9144   18.0877 H   0  0  0  0  0  0  0  0  0  0  0  0
   31.3375   24.4735   17.7331 H   0  0  0  0  0  0  0  0  0  0  0  0
   30.5096   23.3581   15.6497 H   0  0  0  0  0  0  0  0  0  0  0  0
   27.4914   26.8012   11.2819 H   0  0  0  0  0  0  0  0  0  0  0  0
   27.3855   24.5850   10.1198 H   0  0  0  0  0  0  0  0  0  0  0  0
   28.3822   22.5562   11.1702 H   0  0  0  0  0  0  0  0  0  0  0  0
   29.5045   22.7029   13.4045 H   0  0  0  0  0  0  0  0  0  0  0  0
   19.6615   23.9617   12.3946 H   0  0  0  0  0  0  0  0  0  0  0  0
   20.5228   26.0292   13.1579 H   0  0  0  0  0  0  0  0  0  0  0  0
   19.9408   26.4607   15.3189 H   0  0  0  0  0  0  0  0  0  0  0  0
   19.2105   24.5466   16.4601 H   0  0  0  0  0  0  0  0  0  0  0  0
   18.4819   24.4597   14.0523 H   0  0  0  0  0  0  0  0  0  0  0  0
   19.8586   27.9335   17.6672 H   0  0  0  0  0  0  0  0  0  0  0  0
   20.3981   28.6758   16.1229 H   0  0  0  0  0  0  0  0  0  0  0  0
   19.6622   27.0371   16.1229 H   0  0  0  0  0  0  0  0  0  0  0  0
   20.5437   20.9888   18.4491 H   0  0  0  0  0  0  0  0  0  0  0  0
   19.6481   21.0569   16.8935 H   0  0  0  0  0  0  0  0  0  0  0  0
   21.4409   20.9455   16.8935 H   0  0  0  0  0  0  0  0  0  0  0  0
   16.5210   20.6868   13.7419 H   0  0  0  0  0  0  0  0  0  0  0  0
   16.0821   22.1430   12.7861 H   0  0  0  0  0  0  0  0  0  0  0  0
   17.7762   21.5458   12.7861 H   0  0  0  0  0  0  0  0  0  0  0  0
   21.1992   21.6535   13.6180 H   0  0  0  0  0  0  0  0  0  0  0  0
   19.5813   21.5226   12.8196 H   0  0  0  0  0  0  0  0  0  0  0  0
   21.5116   24.3748   10.8896 H   0  0  0  0  0  0  0  0  0  0  0  0
   22.0410   23.4856    9.4214 H   0  0  0  0  0  0  0  0  0  0  0  0
   20.4768   24.3687    9.4214 H   0  0  0  0  0  0  0  0  0  0  0  0
  2  1  1  0
  3  1  1  0
  4  3  1  0
  5  4  1  0
  6  5  2  0
  7  5  1  0
  8  7  1  0
  9  8  1  0
 10  9  1  0
 11 10  2  0
 12 11  1  0
 13 12  2  0
 14 13  1  0
 15 14  2  0
 15 10  1  0
 16 15  1  0
 17 16  2  0
 17  9  1  0
 18 17  1  0
 19 18  2  0
 20 19  1  0
 21 20  2  0
 21 16  1  0
 22  3  1  0
 23 22  2  0
 24 22  1  0
 25  1  1  0
 27 26  1  0
 28 27  1  0
 28 25  1  0
 29 28  1  0
 30 29  1  0
 31 30  1  0
 31 26  1  0
 32 29  1  0
 33 32  1  0
 34 33  2  0
 35 33  1  0
 36 30  1  0
 37 36  1  0
 38 37  2  0
 39 37  1  0
 40 31  1  0
 41 40  1  0
 42 41  2  0
 43 41  1  0
 44 26  1  0
 45 44  1  0
 47 46  1  0
 47 45  1  0
 48 47  2  0
  1 49  1  6
  2 50  1  0
  2 51  1  0
  2 52  1  0
  3 53  1  1
  4 54  1  0
  8 55  1  0
  8 56  1  0
  9 57  1  0
 11 58  1  0
 12 59  1  0
 13 60  1  0
 14 61  1  0
 18 62  1  0
 19 63  1  0
 20 64  1  0
 21 65  1  0
 26 66  1  6
 28 67  1  6
 29 68  1  6
 30 69  1  1
 31 70  1  6
 35 71  1  0
 35 72  1  0
 35 73  1  0
 39 74  1  0
 39 75  1  0
 39 76  1  0
 43 77  1  0
 43 78  1  0
 43 79  1  0
 44 80  1  0
 44 81  1  0
 46 82  1  0
 46 83  1  0
 46 84  1  0
M  CHG  1  24  -1
M  END
$$$$
=
     RDKit          3D

 28 27  0  0  0  0  0  0  0  0999 V2000
   17.0190   16.7130    5.3820 C   0  0  0  0  0  0  0  0  0  0  0  0
   18.2690   15.9150    5.6950 C   0  0  0  0  0  0  0  0  0  0  0  0
   19.4200   15.9080    4.3440 P   0  0  0  0  0  5  0  0  0  0  0  0
   19.3520   14.7280    3.4250 O   0  0  0  0  0  0  0  0  0  0  0  0
   19.5320   17.3900    2.2260 C   0  0  0  0  0  0  0  0  0  0  0  0
   19.1950   17.3240    3.5970 O   0  0  0  0  0  0  0  0  0  0  0  0
   20.8600   16.1200    5.0410 O   0  0  0  0  0  0  0  0  0  0  0  0
   21.0780   17.3560    5.6890 C   0  0  0  0  0  0  0  0  0  0  0  0
   15.8870   15.8990    5.7060 O   0  0  0  0  0  0  0  0  0  0  0  0
   15.0270   15.7040    4.6690 C   0  0  0  0  0  0  0  0  0  0  0  0
   14.2660   16.5400    4.2100 O   0  0  0  0  0  0  0  0  0  0  0  0
   15.1870   14.3150    4.2060 C   0  0  0  0  0  0  0  0  0  0  0  0
   15.9210   14.0120    3.1260 C   0  0  0  0  0  0  0  0  0  0  0  0
   16.0690   12.5680    2.6680 C   0  0  0  0  0  0  0  0  0  0  0  0
   17.2490   12.1240    2.5950 O   0  0  0  0  0  0  0  0  0  0  0  0
   14.9720   11.9960    2.4170 O   0  0  0  0  0  1  0  0  0  0  0  0
   17.0024   17.6336    5.9839 H   0  0  0  0  0  0  0  0  0  0  0  0
   16.9986   16.9933    4.3185 H   0  0  0  0  0  0  0  0  0  0  0  0
   18.7594   16.3565    6.5751 H   0  0  0  0  0  0  0  0  0  0  0  0
   17.9655   14.8747    5.8837 H   0  0  0  0  0  0  0  0  0  0  0  0
   20.6067   17.6005    2.1223 H   0  0  0  0  0  0  0  0  0  0  0  0
   19.2984   16.4290    1.7443 H   0  0  0  0  0  0  0  0  0  0  0  0
   18.9532   18.1918    1.7443 H   0  0  0  0  0  0  0  0  0  0  0  0
   21.0519   17.2083    6.7787 H   0  0  0  0  0  0  0  0  0  0  0  0
   22.0604   17.7551    5.3965 H   0  0  0  0  0  0  0  0  0  0  0  0
   20.2914   18.0671    5.3965 H   0  0  0  0  0  0  0  0  0  0  0  0
   14.6912   13.5050    4.7610 H   0  0  0  0  0  0  0  0  0  0  0  0
   16.4214   14.8151    2.5651 H   0  0  0  0  0  0  0  0  0  0  0  0
  2  1  1  0
  3  2  1  0
  4  3  2  0
  6  3  1  0
  6  5  1  0
  7  3  1  0
  8  7  1  0
  9  1  1  0
 10  9  1  0
 11 10  2  0
 12 10  1  0
 13 12  2  0
 14 13  1  0
 15 14  2  0
 16 14  1  0
  1 17  1  0
  1 18  1  0
  2 19  1  0
  2 20  1  0
  5 21  1  0
  5 22  1  0
  5 23  1  0
  8 24  1  0
  8 25  1  0
  8 26  1  0
 12 27  1  0
 13 28  1  0
M  CHG  1  16  -1
M  END
$$$$
=
     RDKit          3D

 42 43  0  0  0  0  0  0  0  0999 V2000
   27.5560   24.4740   12.6440 C   0  0  2  0  0  0  0  0  0  0  0  0
   27.7160   25.8220   13.0970 O   0  0  0  0  0  0  0  0  0  0  0  0
   26.5280   26.6360   13.1110 C   0  0  1  0  0  0  0  0  0  0  0  0
   25.2240   25.8430   12.8140 C   0  0  1  0  0  0  0  0  0  0  0  0
   25.2370   24.6220   13.7310 C   0  0  2  0  0  0  0  0  0  0  0  0
   26.3960   23.7030   13.3220 C   0  0  2  0  0  0  0  0  0  0  0  0
   24.0050   26.6300   12.9720 N   0  0  0  0  0  0  0  0  0  0  0  0
   22.9750   26.4790   12.0730 C   0  0  0  0  0  0  0  0  0  0  0  0
   22.9140   25.5560   11.2640 O   0  0  0  0  0  0  0  0  0  0  0  0
   21.9210   27.5500   12.1570 C   0  0  0  0  0  0  0  0  0  0  0  0
   26.8320   22.9340   14.4570 O   0  0  0  0  0  0  0  0  0  0  0  0
   24.0090   23.8800   13.6330 O   0  0  0  0  0  0  0  0  0  0  0  0
   28.9120   23.7730   12.8020 C   0  0  0  0  0  0  0  0  0  0  0  0
   29.6250   24.2260   13.9490 O   0  0  0  0  0  0  0  0  0  0  0  0
   26.4210   27.1790   14.4400 O   0  0  0  0  0  0  0  0  0  0  0  0
   27.5820   27.6740   14.9650 C   0  0  0  0  0  0  0  0  0  0  0  0
   28.1400   28.8510   14.4420 C   0  0  0  0  0  0  0  0  0  0  0  0
   29.3610   29.3290   14.9140 C   0  0  0  0  0  0  0  0  0  0  0  0
   30.0470   28.6200   15.8940 C   0  0  0  0  0  0  0  0  0  0  0  0
   29.5100   27.4320   16.3940 C   0  0  0  0  0  0  0  0  0  0  0  0
   28.2720   26.9340   15.9410 C   0  0  0  0  0  0  0  0  0  0  0  0
   27.7520   25.6420   16.5350 C   0  0  0  0  0  0  0  0  0  0  0  0
   28.4640   24.5910   16.4060 O   0  0  0  0  0  0  0  0  0  0  0  0
   26.6010   25.6740   17.0730 O   0  0  0  0  0  1  0  0  0  0  0  0
   27.2519   24.4895   11.5870 H   0  0  0  0  0  0  0  0  0  0  0  0
   26.6241   27.3974   12.3230 H   0  0  0  0  0  0  0  0  0  0  0  0
   25.2099   25.5489   11.7541 H   0  0  0  0  0  0  0  0  0  0  0  0
   25.3558   24.9713   14.7673 H   0  0  0  0  0  0  0  0  0  0  0  0
   26.0278   23.0055   12.5553 H   0  0  0  0  0  0  0  0  0  0  0  0
   23.9165   27.2955   13.7532 H   0  0  0  0  0  0  0  0  0  0  0  0
   21.7048   27.7697   13.2129 H   0  0  0  0  0  0  0  0  0  0  0  0
   22.2841   28.4615   11.6597 H   0  0  0  0  0  0  0  0  0  0  0  0
   21.0038   27.2016   11.6597 H   0  0  0  0  0  0  0  0  0  0  0  0
   26.5688   23.3982   15.2909 H   0  0  0  0  0  0  0  0  0  0  0  0
   23.6728   23.6768   14.5417 H   0  0  0  0  0  0  0  0  0  0  0  0
   28.7416   22.6904   12.8963 H   0  0  0  0  0  0  0  0  0  0  0  0
   29.5178   24.0088   11.9147 H   0  0  0  0  0  0  0  0  0  0  0  0
   29.1558   23.9279   14.7682 H   0  0  0  0  0  0  0  0  0  0  0  0
   27.6083   29.4015   13.6519 H   0  0  0  0  0  0  0  0  0  0  0  0
   29.7805   30.2635   14.5129 H   0  0  0  0  0  0  0  0  0  0  0  0
   31.0093   28.9937   16.2740 H   0  0  0  0  0  0  0  0  0  0  0  0
   30.0665   26.8716   17.1596 H   0  0  0  0  0  0  0  0  0  0  0  0
  2  1  1  0
  3  2  1  0
  4  3  1  0
  5  4  1  0
  6  5  1  0
  6  1  1  0
  7  4  1  0
  8  7  1  0
  9  8  2  0
 10  8  1  0
 11  6  1  0
 12  5  1  0
 13  1  1  0
 14 13  1  0
 15  3  1  0
 16 15  1  0
 17 16  2  0
 18 17  1  0
 19 18  2  0
 20 19  1  0
 21 16  1  0
 21 20  2  0
 22 21  1  0
 23 22  2  0
 24 22  1  0
  1 25  1  6
  3 26  1  6
  4 27  1  6
  5 28  1  1
  6 29  1  6
  7 30  1  0
 10 31  1  0
 10 32  1  0
 10 33  1  0
 11 34  1  0
 12 35  1  0
 13 36  1  0
 13 37  1  0
 14 38  1  0
 17 39  1  0
 18 40  1  0
 19 41  1  0
 20 42  1  0
M  CHG  1  24  -1
M  END
$$$$
=
     RDKit          3D

 78 81  0  0  0  0  0  0  0  0999 V2000
   25.6580   26.0980   15.1400 C   0  0  1  0  0  0  0  0  0  0  0  0
   26.4690   24.8600   14.7320 C   0  0  0  0  0  0  0  0  0  0  0  0
   26.5470   23.9140   15.5290 O   0  0  0  0  0  0  0  0  0  0  0  0
   26.9740   24.7620   13.4560 N   0  0  0  0  0  0  0  0  0  0  0  0
   28.0360   23.7800   13.2210 C   0  0  1  0  0  0  0  0  0  0  0  0
   28.3770   23.9430   11.7500 C   0  0  2  0  0  0  0  0  0  0  0  0
   27.3520   24.8010   11.1990 O   0  0  0  0  0  0  0  0  0  0  0  0
   26.8130   25.5960   12.2830 C   0  0  0  0  0  0  0  0  0  0  0  0
   25.3570   25.8420   11.8840 C   0  0  0  0  0  0  0  0  0  0  0  0
   27.6060   26.9060   12.3260 C   0  0  0  0  0  0  0  0  0  0  0  0
   28.3510   22.6310   10.9830 C   0  0  0  0  0  0  0  0  0  0  0  0
   29.3890   24.0360   13.9420 C   0  0  0  0  0  0  0  0  0  0  0  0
   29.9500   25.1330   13.6480 O   0  0  0  0  0  0  0  0  0  0  0  0
   29.7560   23.1490   14.7690 O   0  0  0  0  0  1  0  0  0  0  0  0
   23.2160   27.4290   14.3640 O   0  0  0  0  0  0  0  0  0  0  0  0
   23.1970   26.3470   14.9300 C   0  0  0  0  0  0  0  0  0  0  0  0
   24.2840   25.6320   15.3040 N   0  0  0  0  0  0  0  0  0  0  0  0
   22.0800   25.6610   15.2660 O   0  0  0  0  0  0  0  0  0  0  0  0
   21.1680   25.4030   14.1820 C   0  0  0  0  0  0  0  0  0  0  0  0
   21.5810   24.1670   13.3710 C   0  0  0  0  0  0  0  0  0  0  0  0
   20.6200   23.8880   12.2200 C   0  0  0  0  0  0  0  0  0  0  0  0
   20.3200   24.7020   11.1370 C   0  0  0  0  0  0  0  0  0  0  0  0
   19.4060   24.2310   10.1930 C   0  0  0  0  0  0  0  0  0  0  0  0
   18.8120   22.9650   10.3380 C   0  0  0  0  0  0  0  0  0  0  0  0
   19.1270   22.1460   11.4270 C   0  0  0  0  0  0  0  0  0  0  0  0
   20.0350   22.6110   12.3640 C   0  0  0  0  0  0  0  0  0  0  0  0
   20.5560   21.9890   13.5620 C   0  0  0  0  0  0  0  0  0  0  0  0
   21.4700   22.8740   14.1770 C   0  0  0  0  0  0  0  0  0  0  0  0
   22.1420   22.5220   15.3380 C   0  0  0  0  0  0  0  0  0  0  0  0
   21.8820   21.2690   15.8960 C   0  0  0  0  0  0  0  0  0  0  0  0
   20.9680   20.3900   15.2930 C   0  0  0  0  0  0  0  0  0  0  0  0
   20.2990   20.7460   14.1170 C   0  0  0  0  0  0  0  0  0  0  0  0
   26.1650   26.6910   16.4610 C   0  0  0  0  0  0  0  0  0  0  0  0
   26.4440   28.1920   16.3620 C   0  0  0  0  0  0  0  0  0  0  0  0
   27.4900   28.6340   17.3580 C   0  0  0  0  0  0  0  0  0  0  0  0
   27.5200   28.3130   18.5380 O   0  0  0  0  0  0  0  0  0  0  0  0
   28.3820   29.4530   16.7380 O   0  0  0  0  0  0  0  0  0  0  0  0
   29.3420   28.9320   15.7870 C   0  0  0  0  0  0  0  0  0  0  0  0
   29.5430   27.4240   15.9680 C   0  0  0  0  0  0  0  0  0  0  0  0
   30.6580   29.6470   16.1280 C   0  0  0  0  0  0  0  0  0  0  0  0
   28.9500   29.2890   14.3480 C   0  0  0  0  0  0  0  0  0  0  0  0
   25.7462   26.8900   14.3817 H   0  0  0  0  0  0  0  0  0  0  0  0
   27.6551   22.8108   13.5752 H   0  0  0  0  0  0  0  0  0  0  0  0
   29.3962   24.3473   11.6612 H   0  0  0  0  0  0  0  0  0  0  0  0
   24.7412   25.9460   12.7895 H   0  0  0  0  0  0  0  0  0  0  0  0
   25.2910   26.7640   11.2878 H   0  0  0  0  0  0  0  0  0  0  0  0
   24.9917   24.9928   11.2878 H   0  0  0  0  0  0  0  0  0  0  0  0
   27.7807   27.1946   13.3730 H   0  0  0  0  0  0  0  0  0  0  0  0
   28.5717   26.7669   11.8180 H   0  0  0  0  0  0  0  0  0  0  0  0
   27.0350   27.6971   11.8180 H   0  0  0  0  0  0  0  0  0  0  0  0
   28.3344   21.7913   11.6933 H   0  0  0  0  0  0  0  0  0  0  0  0
   27.4519   22.5939   10.3503 H   0  0  0  0  0  0  0  0  0  0  0  0
   29.2479   22.5583   10.3503 H   0  0  0  0  0  0  0  0  0  0  0  0
   24.1331   24.7059   15.7287 H   0  0  0  0  0  0  0  0  0  0  0  0
   20.1619   25.2380   14.5949 H   0  0  0  0  0  0  0  0  0  0  0  0
   21.1817   26.2733   13.5094 H   0  0  0  0  0  0  0  0  0  0  0  0
   22.6071   24.4036   13.0529 H   0  0  0  0  0  0  0  0  0  0  0  0
   20.7893   25.6906   11.0255 H   0  0  0  0  0  0  0  0  0  0  0  0
   19.1477   24.8571    9.3263 H   0  0  0  0  0  0  0  0  0  0  0  0
   18.0904   22.6142    9.5855 H   0  0  0  0  0  0  0  0  0  0  0  0
   18.6639   21.1543   11.5370 H   0  0  0  0  0  0  0  0  0  0  0  0
   22.8601   23.2112   15.8063 H   0  0  0  0  0  0  0  0  0  0  0  0
   22.3991   20.9668   16.8187 H   0  0  0  0  0  0  0  0  0  0  0  0
   20.7755   19.4087   15.7512 H   0  0  0  0  0  0  0  0  0  0  0  0
   19.5856   20.0551   13.6441 H   0  0  0  0  0  0  0  0  0  0  0  0
   25.4038   26.5244   17.2374 H   0  0  0  0  0  0  0  0  0  0  0  0
   27.1129   26.1911   16.7092 H   0  0  0  0  0  0  0  0  0  0  0  0
   26.7991   28.4221   15.3467 H   0  0  0  0  0  0  0  0  0  0  0  0
   25.5103   28.7292   16.5850 H   0  0  0  0  0  0  0  0  0  0  0  0
   29.5749   27.1845   17.0411 H   0  0  0  0  0  0  0  0  0  0  0  0
   28.7089   26.8837   15.4964 H   0  0  0  0  0  0  0  0  0  0  0  0
   30.4895   27.1210   15.4964 H   0  0  0  0  0  0  0  0  0  0  0  0
   30.7698   29.7078   17.2206 H   0  0  0  0  0  0  0  0  0  0  0  0
   31.5021   29.0835   15.7038 H   0  0  0  0  0  0  0  0  0  0  0  0
   30.6445   30.6618   15.7038 H   0  0  0  0  0  0  0  0  0  0  0  0
   28.1368   30.0296   14.3625 H   0  0  0  0  0  0  0  0  0  0  0  0
   29.8208   29.7108   13.8247 H   0  0  0  0  0  0  0  0  0  0  0  0
   28.6113   28.3827   13.8247 H   0  0  0  0  0  0  0  0  0  0  0  0
  2  1  1  0
  3  2  2  0
  4  2  1  0
  5  4  1  0
  6  5  1  0
  7  6  1  0
  8  4  1  0
  8  7  1  0
  9  8  1  0
 10  8  1  0
 11  6  1  0
 12  5  1  0
 13 12  2  0
 14 12  1  0
 16 15  2  0
 17 16  1  0
 17  1  1  0
 18 16  1  0
 19 18  1  0
 20 19  1  0
 21 20  1  0
 22 21  2  0
 23 22  1  0
 24 23  2  0
 25 24  1  0
 26 25  2  0
 26 21  1  0
 27 26  1  0
 28 27  2  0
 28 20  1  0
 29 28  1  0
 30 29  2  0
 31 30  1  0
 32 31  2  0
 32 27  1  0
 33  1  1  0
 34 33  1  0
 35 34  1  0
 36 35  2  0
 37 35  1  0
 38 37  1  0
 39 38  1  0
 40 38  1  0
 41 38  1  0
  1 42  1  6
  5 43  1  6
  6 44  1  1
  9 45  1  0
  9 46  1  0
  9 47  1  0
 10 48  1  0
 10 49  1  0
 10 50  1  0
 11 51  1  0
 11 52  1  0
 11 53  1  0
 17 54  1  0
 19 55  1  0
 19 56  1  0
 20 57  1  0
 22 58  1  0
 23 59  1  0
 24 60  1  0
 25 61  1  0
 29 62  1  0
 30 63  1  0
 31 64  1  0
 32 65  1  0
 33 66  1  0
 33 67  1  0
 34 68  1  0
 34 69  1  0
 39 70  1  0
 39 71  1  0
 39 72  1  0
 40 73  1  0
 40 74  1  0
 40 75  1  0
 41 76  1  0
 41 77  1  0
 41 78  1  0
M  CHG  1  14  -1
M  END
$$$$
=
     RDKit          3D

 34 36  0  0  0  0  0  0  0  0999 V2000
   17.5320   15.4180    4.7090 N   0  0  0  0  0  0  0  0  0  0  0  0
   16.8460   14.7300    3.7380 C   0  0  0  0  0  0  0  0  0  0  0  0
   17.6670   13.9420    3.0840 N   0  0  0  0  0  0  0  0  0  0  0  0
   18.9200   14.1280    3.6070 N   0  0  0  0  0  0  0  0  0  0  0  0
   18.8520   15.0410    4.5600 C   0  0  0  0  0  0  0  0  0  0  0  0
   20.1390   15.5360    5.3150 C   0  0  0  0  0  0  0  0  0  0  0  0
   20.7340   14.9700    6.4220 C   0  0  0  0  0  0  0  0  0  0  0  0
   21.8310   15.7250    6.7490 N   0  0  0  0  0  0  0  0  0  0  0  0
   21.9630   16.7830    5.8840 C   0  0  0  0  0  0  0  0  0  0  0  0
   20.9120   16.6930    4.9680 C   0  0  0  0  0  0  0  0  0  0  0  0
   20.8260   17.6800    3.9610 C   0  0  0  0  0  0  0  0  0  0  0  0
   21.7770   18.7040    3.9060 C   0  0  0  0  0  0  0  0  0  0  0  0
   22.8110   18.7620    4.8360 C   0  0  0  0  0  0  0  0  0  0  0  0
   22.9240   17.8000    5.8440 C   0  0  0  0  0  0  0  0  0  0  0  0
   16.5370   15.6630    6.9570 C   0  0  0  0  0  0  0  0  0  0  0  0
   16.9830   16.3460    5.6730 C   0  0  0  0  0  0  0  0  0  0  0  0
   15.1740   14.9400    3.3540 S   0  0  0  0  0  0  0  0  0  0  0  0
   14.4560   13.4420    4.0920 C   0  0  0  0  0  0  0  0  0  0  0  0
   14.1020   12.5310    2.9100 C   0  0  0  0  0  0  0  0  0  0  0  0
   12.8650   12.4180    2.6590 O   0  0  0  0  0  0  0  0  0  0  0  0
   15.0800   11.9570    2.3500 O   0  0  0  0  0  1  0  0  0  0  0  0
   20.3889   14.0694    6.9510 H   0  0  0  0  0  0  0  0  0  0  0  0
   22.4673   15.5261    7.5341 H   0  0  0  0  0  0  0  0  0  0  0  0
   20.0125   17.6432    3.2215 H   0  0  0  0  0  0  0  0  0  0  0  0
   21.7072   19.4708    3.1204 H   0  0  0  0  0  0  0  0  0  0  0  0
   23.5490   19.5756    4.7770 H   0  0  0  0  0  0  0  0  0  0  0  0
   23.7401   17.8408    6.5804 H   0  0  0  0  0  0  0  0  0  0  0  0
   16.9081   16.2313    7.8226 H   0  0  0  0  0  0  0  0  0  0  0  0
   15.4382   15.6230    6.9884 H   0  0  0  0  0  0  0  0  0  0  0  0
   16.9422   14.6408    6.9884 H   0  0  0  0  0  0  0  0  0  0  0  0
   17.7521   17.0926    5.9203 H   0  0  0  0  0  0  0  0  0  0  0  0
   16.0958   16.8112    5.2186 H   0  0  0  0  0  0  0  0  0  0  0  0
   15.1867   12.9501    4.7509 H   0  0  0  0  0  0  0  0  0  0  0  0
   13.5738   13.6731    4.7071 H   0  0  0  0  0  0  0  0  0  0  0  0
  2  1  1  0
  3  2  2  0
  4  3  1  0
  5  4  2  0
  5  1  1  0
  6  5  1  0
  7  6  2  0
  8  7  1  0
  9  8  1  0
 10  6  1  0
 10  9  2  0
 11 10  1  0
 12 11  2  0
 13 12  1  0
 14 13  2  0
 14  9  1  0
 16  1  1  0
 16 15  1  0
 17  2  1  0
 18 17  1  0
 19 18  1  0
 20 19  2  0
 21 19  1  0
  7 22  1  0
  8 23  1  0
 11 24  1  0
 12 25  1  0
 13 26  1  0
 14 27  1  0
 15 28  1  0
 15 29  1  0
 15 30  1  0
 16 31  1  0
 16 32  1  0
 18 33  1  0
 18 34  1  0
M  CHG  1  21  -1
M  END
$$$$
=
     RDKit          3D

 21 21  0  0  0  0  0  0  0  0999 V2000
   19.5880   15.3240    5.3460 C   0  0  0  0  0  0  0  0  0  0  0  0
   19.2460   14.9440    4.0700 C   0  0  0  0  0  0  0  0  0  0  0  0
   17.8350   15.0600    3.9740 C   0  0  0  0  0  0  0  0  0  0  0  0
   17.3600   15.5100    5.1940 C   0  0  0  0  0  0  0  0  0  0  0  0
   18.4490   15.6590    6.0200 N   0  0  0  0  0  0  0  0  0  0  0  0
   21.0520   15.3920    7.2640 O   0  0  0  0  0  1  0  0  0  0  0  0
   20.9990   15.3900    6.0010 C   0  0  0  0  0  0  0  0  0  0  0  0
   21.9600   15.4380    5.1750 O   0  0  0  0  0  0  0  0  0  0  0  0
   15.9750   15.8050    5.6570 C   0  0  0  0  0  0  0  0  0  0  0  0
   14.9470   15.7550    4.5250 C   0  0  0  0  0  0  0  0  0  0  0  0
   13.9620   14.6010    4.6580 C   0  0  0  0  0  0  0  0  0  0  0  0
   19.9331   14.6139    3.2769 H   0  0  0  0  0  0  0  0  0  0  0  0
   17.2260   14.8325    3.0867 H   0  0  0  0  0  0  0  0  0  0  0  0
   18.4112   15.9756    6.9994 H   0  0  0  0  0  0  0  0  0  0  0  0
   15.6942   15.0636    6.4195 H   0  0  0  0  0  0  0  0  0  0  0  0
   15.9723   16.8280    6.0612 H   0  0  0  0  0  0  0  0  0  0  0  0
   14.3817   16.6986    4.5245 H   0  0  0  0  0  0  0  0  0  0  0  0
   15.5015   15.6043    3.5870 H   0  0  0  0  0  0  0  0  0  0  0  0
   13.7837   14.3921    5.7231 H   0  0  0  0  0  0  0  0  0  0  0  0
   13.0123   14.8718    4.1735 H   0  0  0  0  0  0  0  0  0  0  0  0
   14.3786   13.7056    4.1735 H   0  0  0  0  0  0  0  0  0  0  0  0
  2  1  2  0
  3  2  1  0
  4  3  2  0
  5  4  1  0
  5  1  1  0
  7  1  1  0
  7  6  1  0
  8  7  2  0
  9  4  1  0
 10  9  1  0
 11 10  1  0
  2 12  1  0
  3 13  1  0
  5 14  1  0
  9 15  1  0
  9 16  1  0
 10 17  1  0
 10 18  1  0
 11 19  1  0
 11 20  1  0
 11 21  1  0
M  CHG  1   6  -1
M  END
$$$$
=
     RDKit          3D

 35 36  0  0  0  0  0  0  0  0999 V2000
   28.2080   28.0360   14.6310 C   0  0  1  0  0  0  0  0  0  0  0  0
   28.8990   29.4040   14.5780 C   0  0  0  0  0  0  0  0  0  0  0  0
   29.8250   29.6470   15.7710 C   0  0  0  0  0  0  0  0  0  0  0  0
   30.2960   28.3540   16.4320 C   0  0  0  0  0  0  0  0  0  0  0  0
   30.4560   27.2190   15.4280 C   0  0  0  0  0  0  0  0  0  0  0  0
   29.2560   26.9640   14.6360 N   0  0  0  0  0  0  0  0  0  0  0  0
   29.1020   25.6930   14.0950 C   0  0  0  0  0  0  0  0  0  0  0  0
   30.0120   24.8580   14.1560 O   0  0  0  0  0  0  0  0  0  0  0  0
   27.8300   25.3870   13.2990 C   0  0  0  0  0  0  0  0  0  0  0  0
   27.1110   24.1410   13.8420 C   0  0  0  0  0  0  0  0  0  0  0  0
   26.2530   23.5180   12.7540 C   0  0  0  0  0  0  0  0  0  0  0  0
   27.0100   23.0680   11.6270 O   0  0  0  0  0  0  0  0  0  0  0  0
   28.2540   23.7440   11.4360 C   0  0  0  0  0  0  0  0  0  0  0  0
   28.1800   25.2180   11.8100 C   0  0  0  0  0  0  0  0  0  0  0  0
   26.2770   28.8700   15.8100 O   0  0  0  0  0  1  0  0  0  0  0  0
   27.1240   27.9310   15.7680 C   0  0  0  0  0  0  0  0  0  0  0  0
   27.1980   26.8980   16.4980 O   0  0  0  0  0  0  0  0  0  0  0  0
   27.6027   27.8912   13.7240 H   0  0  0  0  0  0  0  0  0  0  0  0
   29.4934   29.4620   13.6542 H   0  0  0  0  0  0  0  0  0  0  0  0
   28.1132   30.1733   14.6066 H   0  0  0  0  0  0  0  0  0  0  0  0
   30.7070   30.2043   15.4226 H   0  0  0  0  0  0  0  0  0  0  0  0
   29.2535   30.2119   16.5221 H   0  0  0  0  0  0  0  0  0  0  0  0
   31.2661   28.5372   16.9170 H   0  0  0  0  0  0  0  0  0  0  0  0
   29.5328   28.0518   17.1643 H   0  0  0  0  0  0  0  0  0  0  0  0
   31.2771   27.4748   14.7422 H   0  0  0  0  0  0  0  0  0  0  0  0
   30.6612   26.3052   16.0050 H   0  0  0  0  0  0  0  0  0  0  0  0
   27.1363   26.2334   13.4102 H   0  0  0  0  0  0  0  0  0  0  0  0
   27.8583   23.4082   14.1804 H   0  0  0  0  0  0  0  0  0  0  0  0
   26.4673   24.4350   14.6841 H   0  0  0  0  0  0  0  0  0  0  0  0
   25.7173   22.6575   13.1812 H   0  0  0  0  0  0  0  0  0  0  0  0
   25.5645   24.2971   12.3949 H   0  0  0  0  0  0  0  0  0  0  0  0
   29.0184   23.2594   12.0611 H   0  0  0  0  0  0  0  0  0  0  0  0
   28.5071   23.6826   10.3673 H   0  0  0  0  0  0  0  0  0  0  0  0
   29.1541   25.6895   11.6127 H   0  0  0  0  0  0  0  0  0  0  0  0
   27.3941   25.6959   11.2066 H   0  0  0  0  0  0  0  0  0  0  0  0
  2  1  1  0
  3  2  1  0
  4  3  1  0
  5  4  1  0
  6  5  1  0
  6  1  1  0
  7  6  1  0
  8  7  2  0
  9  7  1  0
 10  9  1  0
 11 10  1  0
 12 11  1  0
 13 12  1  0
 14 13  1  0
 14  9  1  0
 16 15  1  0
 16  1  1  0
 17 16  2  0
  1 18  1  6
  2 19  1  0
  2 20  1  0
  3 21  1  0
  3 22  1  0
  4 23  1  0
  4 24  1  0
  5 25  1  0
  5 26  1  0
  9 27  1  0
 10 28  1  0
 10 29  1  0
 11 30  1  0
 11 31  1  0
 13 32  1  0
 13 33  1  0
 14 34  1  0
 14 35  1  0
M  CHG  1  15  -1
M  END
$$$$
=
     RDKit          3D

 39 40  0  0  0  0  0  0  0  0999 V2000
   11.0210   12.4270    2.8720 C   0  0  0  0  0  0  0  0  0  0  0  0
   12.3640   12.1140    2.6170 C   0  0  0  0  0  0  0  0  0  0  0  0
   13.3950   12.9350    3.0870 C   0  0  0  0  0  0  0  0  0  0  0  0
   13.0810   14.0630    3.8410 C   0  0  0  0  0  0  0  0  0  0  0  0
   11.7530   14.3560    4.1490 C   0  0  0  0  0  0  0  0  0  0  0  0
   10.7020   13.5770    3.6320 C   0  0  0  0  0  0  0  0  0  0  0  0
    8.2180   10.6270    1.1020 C   0  0  0  0  0  0  0  0  0  0  0  0
    9.2850   11.6890    1.1990 C   0  0  0  0  0  0  0  0  0  0  0  0
    9.4860   12.4620    0.2650 O   0  0  0  0  0  0  0  0  0  0  0  0
    9.9550   11.6350    2.3970 N   0  0  0  0  0  0  0  0  0  0  0  0
    9.2730   14.0370    3.8690 C   0  0  0  0  0  0  0  0  0  0  0  0
    8.7700   14.8290    3.0060 O   0  0  0  0  0  0  0  0  0  0  0  0
    8.7000   13.6250    4.9260 O   0  0  0  0  0  1  0  0  0  0  0  0
   14.3500   15.1710    4.3930 S   0  0  0  0  0  6  0  0  0  0  0  0
   14.7450   14.7750    5.7330 O   0  0  0  0  0  0  0  0  0  0  0  0
   13.9360   16.5270    4.1050 O   0  0  0  0  0  0  0  0  0  0  0  0
   15.6610   14.7070    3.3710 N   0  0  0  0  0  0  0  0  0  0  0  0
   17.0150   14.5230    3.9890 N   0  0  0  0  0  0  0  0  0  0  0  0
   17.6040   15.6560    4.2180 C   0  0  0  0  0  0  0  0  0  0  0  0
   18.9150   15.7570    4.8810 C   0  0  0  0  0  0  0  0  0  0  0  0
   19.8730   16.6810    4.4550 C   0  0  0  0  0  0  0  0  0  0  0  0
   21.1050   16.7500    5.1080 C   0  0  0  0  0  0  0  0  0  0  0  0
   21.3770   15.8950    6.1770 C   0  0  0  0  0  0  0  0  0  0  0  0
   20.4210   14.9670    6.5940 C   0  0  0  0  0  0  0  0  0  0  0  0
   19.1870   14.8950    5.9470 C   0  0  0  0  0  0  0  0  0  0  0  0
   12.6103   11.2107    2.0396 H   0  0  0  0  0  0  0  0  0  0  0  0
   14.4441   12.6916    2.8629 H   0  0  0  0  0  0  0  0  0  0  0  0
   11.5240   15.2084    4.8055 H   0  0  0  0  0  0  0  0  0  0  0  0
    7.9114   10.3218    2.1134 H   0  0  0  0  0  0  0  0  0  0  0  0
    7.3487   11.0290    0.5610 H   0  0  0  0  0  0  0  0  0  0  0  0
    8.6159    9.7558    0.5610 H   0  0  0  0  0  0  0  0  0  0  0  0
    9.6295   10.9054    3.0471 H   0  0  0  0  0  0  0  0  0  0  0  0
   15.5171   14.5601    2.3617 H   0  0  0  0  0  0  0  0  0  0  0  0
   17.1017   16.5825    3.9029 H   0  0  0  0  0  0  0  0  0  0  0  0
   19.6574   17.3506    3.6093 H   0  0  0  0  0  0  0  0  0  0  0  0
   21.8613   17.4782    4.7800 H   0  0  0  0  0  0  0  0  0  0  0  0
   22.3471   15.9525    6.6923 H   0  0  0  0  0  0  0  0  0  0  0  0
   20.6410   14.2916    7.4339 H   0  0  0  0  0  0  0  0  0  0  0  0
   18.4327   14.1642    6.2739 H   0  0  0  0  0  0  0  0  0  0  0  0
  2  1  2  0
  3  2  1  0
  4  3  2  0
  5  4  1  0
  6  5  2  0
  6  1  1  0
  8  7  1  0
  9  8  2  0
 10  8  1  0
 10  1  1  0
 11  6  1  0
 12 11  2  0
 13 11  1  0
 14  4  1  0
 15 14  2  0
 16 14  2  0
 17 14  1  0
 18 17  1  0
 19 18  2  0
 20 19  1  0
 21 20  2  0
 22 21  1  0
 23 22  2  0
 24 23  1  0
 25 20  1  0
 25 24  2  0
  2 26  1  0
  3 27  1  0
  5 28  1  0
  7 29  1  0
  7 30  1  0
  7 31  1  0
 10 32  1  0
 17 33  1  0
 19 34  1  0
 21 35  1  0
 22 36  1  0
 23 37  1  0
 24 38  1  0
 25 39  1  0
M  CHG  1  13  -1
M  END
$$$$
=
     RDKit          3D

 38 38  0  0  0  0  0  0  0  0999 V2000
   17.9850   16.5860    5.4290 N   0  0  0  0  0  0  0  0  0  0  0  0
   16.9260   16.0620    6.0960 C   0  0  0  0  0  0  0  0  0  0  0  0
   16.9330   15.6360    7.2420 O   0  0  0  0  0  0  0  0  0  0  0  0
   19.3910   16.3850    5.8340 C   0  0  1  0  0  0  0  0  0  0  0  0
   19.7600   14.8600    5.8400 C   0  0  0  0  0  0  0  0  0  0  0  0
   20.4620   14.5100    6.8380 O   0  0  0  0  0  0  0  0  0  0  0  0
   19.2980   14.1730    4.8900 O   0  0  0  0  0  1  0  0  0  0  0  0
   20.3830   17.1630    4.9270 C   0  0  2  0  0  0  0  0  0  0  0  0
   22.7090   18.2930    5.0780 C   0  0  0  0  0  0  0  0  0  0  0  0
   21.4320   17.8940    5.8030 C   0  0  0  0  0  0  0  0  0  0  0  0
   19.6150   18.1130    3.9800 C   0  0  0  0  0  0  0  0  0  0  0  0
   19.8040   17.7900    2.5560 C   0  0  0  0  0  0  0  0  0  0  0  0
   19.9240   17.5040    1.4360 N   0  0  0  0  0  0  0  0  0  0  0  0
   15.8400   16.0790    5.2860 O   0  0  0  0  0  0  0  0  0  0  0  0
   16.0190   15.3380    4.0780 C   0  0  0  0  0  0  0  0  0  0  0  0
   14.8240   14.4430    3.8420 C   0  0  0  0  0  0  0  0  0  0  0  0
   13.5490   14.8080    4.2980 C   0  0  0  0  0  0  0  0  0  0  0  0
   12.4430   13.9950    4.0470 C   0  0  0  0  0  0  0  0  0  0  0  0
   12.5970   12.8120    3.3260 C   0  0  0  0  0  0  0  0  0  0  0  0
   13.8560   12.4430    2.8560 C   0  0  0  0  0  0  0  0  0  0  0  0
   14.9630   13.2570    3.1060 C   0  0  0  0  0  0  0  0  0  0  0  0
   17.7976   17.1567    4.5923 H   0  0  0  0  0  0  0  0  0  0  0  0
   19.4842   16.7850    6.8544 H   0  0  0  0  0  0  0  0  0  0  0  0
   20.9333   16.4609    4.2834 H   0  0  0  0  0  0  0  0  0  0  0  0
   23.4883   18.5365    5.8151 H   0  0  0  0  0  0  0  0  0  0  0  0
   23.0487   17.4582    4.4474 H   0  0  0  0  0  0  0  0  0  0  0  0
   22.5130   19.1727    4.4474 H   0  0  0  0  0  0  0  0  0  0  0  0
   20.9666   18.8073    6.2021 H   0  0  0  0  0  0  0  0  0  0  0  0
   21.7320   17.1798    6.5839 H   0  0  0  0  0  0  0  0  0  0  0  0
   18.5421   18.0477    4.2139 H   0  0  0  0  0  0  0  0  0  0  0  0
   20.0120   19.1262    4.1409 H   0  0  0  0  0  0  0  0  0  0  0  0
   16.1244   16.0358    3.2342 H   0  0  0  0  0  0  0  0  0  0  0  0
   16.9241   14.7188    4.1636 H   0  0  0  0  0  0  0  0  0  0  0  0
   13.4194   15.7450    4.8594 H   0  0  0  0  0  0  0  0  0  0  0  0
   11.4497   14.2876    4.4181 H   0  0  0  0  0  0  0  0  0  0  0  0
   11.7257   12.1704    3.1282 H   0  0  0  0  0  0  0  0  0  0  0  0
   13.9780   11.5093    2.2873 H   0  0  0  0  0  0  0  0  0  0  0  0
   15.9520   12.9657    2.7226 H   0  0  0  0  0  0  0  0  0  0  0  0
  2  1  1  0
  3  2  2  0
  4  1  1  0
  5  4  1  0
  6  5  2  0
  7  5  1  0
  8  4  1  0
 10  8  1  0
 10  9  1  0
 11  8  1  0
 12 11  1  0
 13 12  3  0
 14  2  1  0
 15 14  1  0
 16 15  1  0
 17 16  2  0
 18 17  1  0
 19 18  2  0
 20 19  1  0
 21 20  2  0
 21 16  1  0
  1 22  1  0
  4 23  1  1
  8 24  1  6
  9 25  1  0
  9 26  1  0
  9 27  1  0
 10 28  1  0
 10 29  1  0
 11 30  1  0
 11 31  1  0
 15 32  1  0
 15 33  1  0
 17 34  1  0
 18 35  1  0
 19 36  1  0
 20 37  1  0
 21 38  1  0
M  CHG  1   7  -1
M  END
$$$$
=
     RDKit          3D

 18 18  0  0  0  0  0  0  0  0999 V2000
   18.5490   15.2780    5.5040 N   0  0  0  0  0  0  0  0  0  0  0  0
   17.4110   15.7600    6.2440 C   0  0  0  0  0  0  0  0  0  0  0  0
   16.4860   16.2570    5.1530 C   0  0  0  0  0  0  0  0  0  0  0  0
   16.7460   15.2850    4.0090 C   0  0  0  0  0  0  0  0  0  0  0  0
   18.1860   14.8780    4.2230 C   0  0  0  0  0  0  0  0  0  0  0  0
   18.8720   14.3060    3.3900 O   0  0  0  0  0  0  0  0  0  0  0  0
   19.6950   14.6800    6.2080 C   0  0  0  0  0  0  0  0  0  0  0  0
   21.6380   15.4290    4.9990 O   0  0  0  0  0  1  0  0  0  0  0  0
   21.0590   15.4190    6.1230 C   0  0  0  0  0  0  0  0  0  0  0  0
   21.4560   15.9060    7.2250 O   0  0  0  0  0  0  0  0  0  0  0  0
   16.9424   14.9498    6.8219 H   0  0  0  0  0  0  0  0  0  0  0  0
   17.6682   16.5338    6.9823 H   0  0  0  0  0  0  0  0  0  0  0  0
   15.4355   16.2142    5.4763 H   0  0  0  0  0  0  0  0  0  0  0  0
   16.6672   17.3065    4.8778 H   0  0  0  0  0  0  0  0  0  0  0  0
   16.0765   14.4144    4.0711 H   0  0  0  0  0  0  0  0  0  0  0  0
   16.5650   15.7265    3.0179 H   0  0  0  0  0  0  0  0  0  0  0  0
   19.4259   14.6079    7.2721 H   0  0  0  0  0  0  0  0  0  0  0  0
   19.8657   13.7207    5.6976 H   0  0  0  0  0  0  0  0  0  0  0  0
  2  1  1  0
  3  2  1  0
  4  3  1  0
  5  4  1  0
  5  1  1  0
  6  5  2  0
  7  1  1  0
  9  8  1  0
  9  7  1  0
 10  9  2  0
  2 11  1  0
  2 12  1  0
  3 13  1  0
  3 14  1  0
  4 15  1  0
  4 16  1  0
  7 17  1  0
  7 18  1  0
M  CHG  1   8  -1
M  END
$$$$
=
     RDKit          3D

 30 29  0  0  0  0  0  0  0  0999 V2000
   18.6630   16.2220    2.8310 O   0  0  0  0  0  0  0  0  0  0  0  0
   18.5650   15.3060    3.6330 C   0  0  0  0  0  0  0  0  0  0  0  0
   17.4330   14.5970    3.8630 N   0  0  0  0  0  0  0  0  0  0  0  0
   19.5560   14.8370    4.4250 O   0  0  0  0  0  0  0  0  0  0  0  0
   20.1520   15.6730    5.4450 C   0  0  0  0  0  0  0  0  0  0  0  0
   21.5680   16.1090    5.0520 C   0  0  0  0  0  0  0  0  0  0  0  0
   20.2440   14.7710    6.6850 C   0  0  0  0  0  0  0  0  0  0  0  0
   19.2550   16.8710    5.7780 C   0  0  0  0  0  0  0  0  0  0  0  0
   16.1030   15.0400    3.4280 C   0  0  2  0  0  0  0  0  0  0  0  0
   15.1870   15.5250    4.5750 C   0  0  0  0  0  0  0  0  0  0  0  0
   13.9180   15.7160    4.1320 F   0  0  0  0  0  0  0  0  0  0  0  0
   15.5970   16.7310    5.0510 F   0  0  0  0  0  0  0  0  0  0  0  0
   15.1310   14.6950    5.6330 F   0  0  0  0  0  0  0  0  0  0  0  0
   15.4390   13.9640    2.5710 C   0  0  0  0  0  0  0  0  0  0  0  0
   15.7910   12.5660    3.0650 C   0  0  0  0  0  0  0  0  0  0  0  0
   16.8980   12.1240    2.6590 O   0  0  0  0  0  0  0  0  0  0  0  0
   14.9330   12.0420    3.8310 O   0  0  0  0  0  1  0  0  0  0  0  0
   17.5099   13.7027    4.3682 H   0  0  0  0  0  0  0  0  0  0  0  0
   22.1608   16.2915    5.9604 H   0  0  0  0  0  0  0  0  0  0  0  0
   22.0440   15.3158    4.4568 H   0  0  0  0  0  0  0  0  0  0  0  0
   21.5154   17.0325    4.4568 H   0  0  0  0  0  0  0  0  0  0  0  0
   20.1810   15.3885    7.5931 H   0  0  0  0  0  0  0  0  0  0  0  0
   19.4149   14.0481    6.6749 H   0  0  0  0  0  0  0  0  0  0  0  0
   21.2019   14.2304    6.6749 H   0  0  0  0  0  0  0  0  0  0  0  0
   19.1755   16.9772    6.8700 H   0  0  0  0  0  0  0  0  0  0  0  0
   19.6919   17.7860    5.3515 H   0  0  0  0  0  0  0  0  0  0  0  0
   18.2540   16.7093    5.3515 H   0  0  0  0  0  0  0  0  0  0  0  0
   16.2598   15.9365    2.8102 H   0  0  0  0  0  0  0  0  0  0  0  0
   14.3477   14.0948    2.6140 H   0  0  0  0  0  0  0  0  0  0  0  0
   15.8036   14.0690    1.5385 H   0  0  0  0  0  0  0  0  0  0  0  0
  2  1  2  0
  3  2  1  0
  4  2  1  0
  5  4  1  0
  6  5  1  0
  7  5  1  0
  8  5  1  0
  9  3  1  0
 10  9  1  0
 11 10  1  0
 12 10  1  0
 13 10  1  0
 14  9  1  0
 15 14  1  0
 16 15  2  0
 17 15  1  0
  3 18  1  0
  6 19  1  0
  6 20  1  0
  6 21  1  0
  7 22  1  0
  7 23  1  0
  7 24  1  0
  8 25  1  0
  8 26  1  0
  8 27  1  0
  9 28  1  6
 14 29  1  0
 14 30  1  0
M  CHG  1  17  -1
M  END
$$$$
=
     RDKit          3D

 26 26  0  0  0  0  0  0  0  0999 V2000
   18.8870   15.6050    5.5370 C   0  0  0  0  0  0  0  0  0  0  0  0
   17.7210   15.9420    6.1950 C   0  0  0  0  0  0  0  0  0  0  0  0
   16.5640   15.6230    5.4290 C   0  0  0  0  0  0  0  0  0  0  0  0
   16.8830   15.0480    4.2140 C   0  0  0  0  0  0  0  0  0  0  0  0
   18.5710   14.8260    4.0470 S   0  0  0  0  0  0  0  0  0  0  0  0
   20.6000   15.8710    5.9150 S   0  0  0  0  0  6  0  0  0  0  0  0
   21.3370   15.3330    4.7930 O   0  0  0  0  0  0  0  0  0  0  0  0
   20.7780   15.3610    7.2570 O   0  0  0  0  0  0  0  0  0  0  0  0
   20.8610   17.5430    5.9350 N   0  0  0  0  0  0  0  0  0  0  0  0
   20.8290   18.1930    4.6210 C   0  0  0  0  0  0  0  0  0  0  0  0
   23.2790   18.4480    5.1300 C   0  0  0  0  0  0  0  0  0  0  0  0
   22.2120   18.7090    4.3620 C   0  0  0  0  0  0  0  0  0  0  0  0
   15.9500   14.6500    3.1060 C   0  0  0  0  0  0  0  0  0  0  0  0
   15.6610   13.1430    3.1870 C   0  0  0  0  0  0  0  0  0  0  0  0
   14.6840   12.8150    3.9210 O   0  0  0  0  0  0  0  0  0  0  0  0
   16.4240   12.4110    2.4920 O   0  0  0  0  0  1  0  0  0  0  0  0
   17.6896   16.4027    7.1934 H   0  0  0  0  0  0  0  0  0  0  0  0
   15.5342   15.8126    5.7660 H   0  0  0  0  0  0  0  0  0  0  0  0
   20.1316   17.9729    6.5215 H   0  0  0  0  0  0  0  0  0  0  0  0
   20.5440   17.4667    3.8456 H   0  0  0  0  0  0  0  0  0  0  0  0
   20.0920   19.0093    4.6012 H   0  0  0  0  0  0  0  0  0  0  0  0
   24.2613   18.8678    4.8678 H   0  0  0  0  0  0  0  0  0  0  0  0
   23.1724   17.8140    6.0225 H   0  0  0  0  0  0  0  0  0  0  0  0
   22.3621   19.3473    3.4788 H   0  0  0  0  0  0  0  0  0  0  0  0
   15.0074   15.2086    3.2036 H   0  0  0  0  0  0  0  0  0  0  0  0
   16.4173   14.8793    2.1369 H   0  0  0  0  0  0  0  0  0  0  0  0
  2  1  2  0
  3  2  1  0
  4  3  2  0
  5  4  1  0
  5  1  1  0
  6  1  1  0
  7  6  2  0
  8  6  2  0
  9  6  1  0
 10  9  1  0
 12 10  1  0
 12 11  2  3
 13  4  1  0
 14 13  1  0
 15 14  2  0
 16 14  1  0
  2 17  1  0
  3 18  1  0
  9 19  1  0
 10 20  1  0
 10 21  1  0
 11 22  1  0
 11 23  1  0
 12 24  1  0
 13 25  1  0
 13 26  1  0
M  CHG  1  16  -1
M  END
$$$$
=
     RDKit          3D

 38 39  0  0  0  0  0  0  0  0999 V2000
   28.0940   25.9190   13.0140 N   0  0  0  0  0  0  0  0  0  0  0  0
   28.0770   27.1000   13.6980 N   0  0  0  0  0  0  0  0  0  0  0  0
   28.7640   27.2420   14.7980 C   0  0  0  0  0  0  0  0  0  0  0  0
   29.5120   26.0970   15.4060 C   0  0  0  0  0  0  0  0  0  0  0  0
   29.5010   24.8910   14.7080 C   0  0  0  0  0  0  0  0  0  0  0  0
   28.7480   24.7770   13.4480 C   0  0  0  0  0  0  0  0  0  0  0  0
   28.7030   23.6950   12.8600 O   0  0  0  0  0  0  0  0  0  0  0  0
   30.1710   23.7600   15.2070 C   0  0  0  0  0  0  0  0  0  0  0  0
   30.8500   23.8290   16.4200 C   0  0  0  0  0  0  0  0  0  0  0  0
   30.8510   25.0200   17.1360 C   0  0  0  0  0  0  0  0  0  0  0  0
   30.1800   26.1440   16.6370 C   0  0  0  0  0  0  0  0  0  0  0  0
   28.6830   28.6190   15.4910 C   0  0  0  0  0  0  0  0  0  0  0  0
   28.1480   29.6470   14.4880 C   0  0  0  0  0  0  0  0  0  0  0  0
   30.0690   29.0920   15.9760 C   0  0  0  0  0  0  0  0  0  0  0  0
   27.8990   28.5350   16.8160 C   0  0  0  0  0  0  0  0  0  0  0  0
   26.8770   27.7940   16.8160 O   0  0  0  0  0  0  0  0  0  0  0  0
   28.3460   29.2530   17.7580 O   0  0  0  0  0  1  0  0  0  0  0  0
   27.2910   25.8780   11.7980 C   0  0  0  0  0  0  0  0  0  0  0  0
   25.7970   25.8770   12.1090 C   0  0  0  0  0  0  0  0  0  0  0  0
   25.5660   24.0320   10.6640 C   0  0  0  0  0  0  0  0  0  0  0  0
   25.2690   24.5550   11.9510 O   0  0  0  0  0  0  0  0  0  0  0  0
   30.1585   22.8189   14.6376 H   0  0  0  0  0  0  0  0  0  0  0  0
   31.3815   22.9479   16.8088 H   0  0  0  0  0  0  0  0  0  0  0  0
   31.3806   25.0804   18.0982 H   0  0  0  0  0  0  0  0  0  0  0  0
   30.1775   27.0769   17.2199 H   0  0  0  0  0  0  0  0  0  0  0  0
   27.7067   30.4950   15.0322 H   0  0  0  0  0  0  0  0  0  0  0  0
   28.9734   30.0065   13.8560 H   0  0  0  0  0  0  0  0  0  0  0  0
   27.3800   29.1773   13.8560 H   0  0  0  0  0  0  0  0  0  0  0  0
   30.0898   29.0991   17.0758 H   0  0  0  0  0  0  0  0  0  0  0  0
   30.8428   28.4071   15.5990 H   0  0  0  0  0  0  0  0  0  0  0  0
   30.2626   30.1071   15.5990 H   0  0  0  0  0  0  0  0  0  0  0  0
   27.5271   26.7602   11.1848 H   0  0  0  0  0  0  0  0  0  0  0  0
   27.5302   24.9490   11.2598 H   0  0  0  0  0  0  0  0  0  0  0  0
   25.6395   26.2116   13.1450 H   0  0  0  0  0  0  0  0  0  0  0  0
   25.2816   26.5589   11.4166 H   0  0  0  0  0  0  0  0  0  0  0  0
   26.1066   23.0800   10.7709 H   0  0  0  0  0  0  0  0  0  0  0  0
   24.6297   23.8620   10.1123 H   0  0  0  0  0  0  0  0  0  0  0  0
   26.1917   24.7490   10.1123 H   0  0  0  0  0  0  0  0  0  0  0  0
  2  1  1  0
  3  2  2  0
  4  3  1  0
  5  4  2  0
  6  5  1  0
  6  1  1  0
  7  6  2  0
  8  5  1  0
  9  8  2  0
 10  9  1  0
 11  4  1  0
 11 10  2  0
 12  3  1  0
 13 12  1  0
 14 12  1  0
 15 12  1  0
 16 15  2  0
 17 15  1  0
 18  1  1  0
 19 18  1  0
 21 20  1  0
 21 19  1  0
  8 22  1  0
  9 23  1  0
 10 24  1  0
 11 25  1  0
 13 26  1  0
 13 27  1  0
 13 28  1  0
 14 29  1  0
 14 30  1  0
 14 31  1  0
 18 32  1  0
 18 33  1  0
 19 34  1  0
 19 35  1  0
 20 36  1  0
 20 37  1  0
 20 38  1  0
M  CHG  1  17  -1
M  END
$$$$
=
     RDKit          3D

 21 20  0  0  0  0  0  0  0  0999 V2000
   19.6610   16.5380    5.4090 C   0  0  1  0  0  0  0  0  0  0  0  0
   21.2250   16.1720    6.1960 S   0  0  0  0  0  6  0  0  0  0  0  0
   20.9760   15.3520    7.3680 O   0  0  0  0  0  0  0  0  0  0  0  0
   22.0200   17.3740    6.3330 O   0  0  0  0  0  0  0  0  0  0  0  0
   22.0720   15.2000    5.1100 N   0  0  0  0  0  0  0  0  0  0  0  0
   19.8280   16.2790    3.9320 C   0  0  0  0  0  0  0  0  0  0  0  0
   20.3040   17.2460    3.2620 O   0  0  0  0  0  0  0  0  0  0  0  0
   19.5280   15.1180    3.5400 O   0  0  0  0  0  1  0  0  0  0  0  0
   18.5200   15.7040    6.0020 C   0  0  0  0  0  0  0  0  0  0  0  0
   16.0090   15.7590    5.5410 C   0  0  0  0  0  0  0  0  0  0  0  0
   17.1980   16.4590    6.1800 C   0  0  0  0  0  0  0  0  0  0  0  0
   19.3863   17.5889    5.5826 H   0  0  0  0  0  0  0  0  0  0  0  0
   22.6555   14.5304    5.6315 H   0  0  0  0  0  0  0  0  0  0  0  0
   21.4050   14.6854    4.5175 H   0  0  0  0  0  0  0  0  0  0  0  0
   18.3385   14.8487    5.3346 H   0  0  0  0  0  0  0  0  0  0  0  0
   18.8450   15.4064    7.0099 H   0  0  0  0  0  0  0  0  0  0  0  0
   15.3467   15.3691    6.3280 H   0  0  0  0  0  0  0  0  0  0  0  0
   15.4544   16.4747    4.9164 H   0  0  0  0  0  0  0  0  0  0  0  0
   16.3657   14.9268    4.9164 H   0  0  0  0  0  0  0  0  0  0  0  0
   17.3017   17.4549    5.7245 H   0  0  0  0  0  0  0  0  0  0  0  0
   16.9992   16.5131    7.2605 H   0  0  0  0  0  0  0  0  0  0  0  0
  2  1  1  0
  3  2  2  0
  4  2  2  0
  5  2  1  0
  6  1  1  0
  7  6  2  0
  8  6  1  0
  9  1  1  0
 11 10  1  0
 11  9  1  0
  1 12  1  6
  5 13  1  0
  5 14  1  0
  9 15  1  0
  9 16  1  0
 10 17  1  0
 10 18  1  0
 10 19  1  0
 11 20  1  0
 11 21  1  0
M  CHG  1   8  -1
M  END
$$$$
=
     RDKit          3D

 19 18  0  0  0  0  0  0  0  0999 V2000
   18.3470   16.5270    5.1530 C   0  0  0  0  0  0  0  0  0  0  0  0
   18.9690   17.5110    4.1690 C   0  0  0  0  0  0  0  0  0  0  0  0
   19.5290   17.4090    1.8790 O   0  0  0  0  0  1  0  0  0  0  0  0
   19.4130   16.7270    2.9340 C   0  0  0  0  0  0  0  0  0  0  0  0
   19.6080   15.4930    3.1290 O   0  0  0  0  0  0  0  0  0  0  0  0
   16.9370   16.9090    5.6060 C   0  0  0  0  0  0  0  0  0  0  0  0
   15.8100   15.9910    5.1470 C   0  0  0  0  0  0  0  0  0  0  0  0
   14.8000   16.7790    4.6720 F   0  0  0  0  0  0  0  0  0  0  0  0
   15.2790   15.3260    6.2040 F   0  0  0  0  0  0  0  0  0  0  0  0
   16.1760   14.9980    4.0630 C   0  0  0  0  0  0  0  0  0  0  0  0
   18.3000   15.5391    4.6715 H   0  0  0  0  0  0  0  0  0  0  0  0
   18.9820   16.5302    6.0512 H   0  0  0  0  0  0  0  0  0  0  0  0
   18.2274   18.2710    3.8820 H   0  0  0  0  0  0  0  0  0  0  0  0
   19.8295   18.0190    4.6289 H   0  0  0  0  0  0  0  0  0  0  0  0
   16.9306   16.9240    6.7059 H   0  0  0  0  0  0  0  0  0  0  0  0
   16.7317   17.8832    5.1382 H   0  0  0  0  0  0  0  0  0  0  0  0
   16.5212   14.0614    4.5251 H   0  0  0  0  0  0  0  0  0  0  0  0
   15.2935   14.7952    3.4384 H   0  0  0  0  0  0  0  0  0  0  0  0
   16.9790   15.4164    3.4384 H   0  0  0  0  0  0  0  0  0  0  0  0
  2  1  1  0
  4  3  1  0
  4  2  1  0
  5  4  2  0
  6  1  1  0
  7  6  1  0
  8  7  1  0
  9  7  1  0
 10  7  1  0
  1 11  1  0
  1 12  1  0
  2 13  1  0
  2 14  1  0
  6 15  1  0
  6 16  1  0
 10 17  1  0
 10 18  1  0
 10 19  1  0
M  CHG  1   3  -1
M  END
$$$$
=
     RDKit          3D

 17 16  0  0  0  0  0  0  0  0999 V2000
   19.2120   16.3230    3.5820 C   0  0  0  0  0  0  0  0  0  0  0  0
   19.3770   15.1470    3.2590 O   0  0  0  0  0  0  0  0  0  0  0  0
   18.5130   16.7390    4.7120 N   0  0  0  0  0  0  0  0  0  0  0  0
   19.3740   17.6950    1.5580 O   0  0  0  0  0  1  0  0  0  0  0  0
   19.8690   17.4350    2.6990 C   0  0  0  0  0  0  0  0  0  0  0  0
   20.8850   17.9820    3.2500 O   0  0  0  0  0  0  0  0  0  0  0  0
   18.1920   15.8210    5.7720 C   0  0  0  0  0  0  0  0  0  0  0  0
   16.7890   16.0400    6.3280 C   0  0  0  0  0  0  0  0  0  0  0  0
   15.6940   15.6850    5.3310 C   0  0  0  0  0  0  0  0  0  0  0  0
   18.2200   17.7233    4.7905 H   0  0  0  0  0  0  0  0  0  0  0  0
   18.2612   14.7944    5.3829 H   0  0  0  0  0  0  0  0  0  0  0  0
   18.9068   15.9918    6.5905 H   0  0  0  0  0  0  0  0  0  0  0  0
   16.6647   15.4135    7.2236 H   0  0  0  0  0  0  0  0  0  0  0  0
   16.6895   17.1106    6.5601 H   0  0  0  0  0  0  0  0  0  0  0  0
   14.7845   15.3901    5.8749 H   0  0  0  0  0  0  0  0  0  0  0  0
   15.4763   16.5586    4.6990 H   0  0  0  0  0  0  0  0  0  0  0  0
   16.0303   14.8499    4.6990 H   0  0  0  0  0  0  0  0  0  0  0  0
  2  1  2  0
  3  1  1  0
  5  1  1  0
  5  4  1  0
  6  5  2  0
  7  3  1  0
  8  7  1  0
  9  8  1  0
  3 10  1  0
  7 11  1  0
  7 12  1  0
  8 13  1  0
  8 14  1  0
  9 15  1  0
  9 16  1  0
  9 17  1  0
M  CHG  1   4  -1
M  END
$$$$
=
     RDKit          3D

 26 27  0  0  0  0  0  0  0  0999 V2000
   17.2360   15.1510    4.1930 C   0  0  0  0  0  0  0  0  0  0  0  0
   16.0090   15.4610    4.4850 N   0  0  0  0  0  0  0  0  0  0  0  0
   15.0000   14.5830    4.0590 C   0  0  0  0  0  0  0  0  0  0  0  0
   13.6710   14.8880    4.3650 C   0  0  0  0  0  0  0  0  0  0  0  0
   12.6330   14.0430    3.9630 C   0  0  0  0  0  0  0  0  0  0  0  0
   12.9140   12.8800    3.2460 C   0  0  0  0  0  0  0  0  0  0  0  0
   14.2360   12.5620    2.9330 C   0  0  0  0  0  0  0  0  0  0  0  0
   15.2680   13.4150    3.3420 C   0  0  0  0  0  0  0  0  0  0  0  0
   16.6760   13.1110    3.0250 C   0  0  0  0  0  0  0  0  0  0  0  0
   16.9630   12.0970    2.3970 O   0  0  0  0  0  0  0  0  0  0  0  0
   17.5820   14.0310    3.4800 N   0  0  0  0  0  0  0  0  0  0  0  0
   18.3900   16.0490    4.6180 C   0  0  0  0  0  0  0  0  0  0  0  0
   19.4900   15.2530    5.0500 O   0  0  0  0  0  0  0  0  0  0  0  0
   20.7480   15.9630    4.9810 C   0  0  0  0  0  0  0  0  0  0  0  0
   21.0500   15.3760    7.2910 O   0  0  0  0  0  1  0  0  0  0  0  0
   21.4620   16.1190    6.3490 C   0  0  0  0  0  0  0  0  0  0  0  0
   22.4080   16.9580    6.3530 O   0  0  0  0  0  0  0  0  0  0  0  0
   13.4392   15.8037    4.9287 H   0  0  0  0  0  0  0  0  0  0  0  0
   11.5919   14.2957    4.2126 H   0  0  0  0  0  0  0  0  0  0  0  0
   12.0965   12.2161    2.9285 H   0  0  0  0  0  0  0  0  0  0  0  0
   14.4660   11.6465    2.3682 H   0  0  0  0  0  0  0  0  0  0  0  0
   18.5792   13.8736    3.2756 H   0  0  0  0  0  0  0  0  0  0  0  0
   18.7019   16.6702    3.7655 H   0  0  0  0  0  0  0  0  0  0  0  0
   18.0614   16.6932    5.4469 H   0  0  0  0  0  0  0  0  0  0  0  0
   21.4176   15.4145    4.3022 H   0  0  0  0  0  0  0  0  0  0  0  0
   20.5205   16.9783    4.6239 H   0  0  0  0  0  0  0  0  0  0  0  0
  2  1  2  0
  3  2  1  0
  4  3  2  0
  5  4  1  0
  6  5  2  0
  7  6  1  0
  8  7  2  0
  8  3  1  0
  9  8  1  0
 10  9  2  0
 11  9  1  0
 11  1  1  0
 12  1  1  0
 13 12  1  0
 14 13  1  0
 16 14  1  0
 16 15  1  0
 17 16  2  0
  4 18  1  0
  5 19  1  0
  6 20  1  0
  7 21  1  0
 11 22  1  0
 12 23  1  0
 12 24  1  0
 14 25  1  0
 14 26  1  0
M  CHG  1  15  -1
M  END
$$$$
=
     RDKit          3D

 27 28  0  0  0  0  0  0  0  0999 V2000
   18.3590   16.1140    4.0850 C   0  0  0  0  0  0  0  0  0  0  0  0
   18.2930   16.8650    5.2610 C   0  0  0  0  0  0  0  0  0  0  0  0
   17.1250   16.8780    6.0220 C   0  0  0  0  0  0  0  0  0  0  0  0
   16.0170   16.1290    5.6180 C   0  0  0  0  0  0  0  0  0  0  0  0
   16.0550   15.3490    4.4500 C   0  0  0  0  0  0  0  0  0  0  0  0
   17.2410   15.3610    3.6940 C   0  0  0  0  0  0  0  0  0  0  0  0
   14.9020   14.5270    4.0380 C   0  0  0  0  0  0  0  0  0  0  0  0
   15.0860   13.3400    3.3050 C   0  0  0  0  0  0  0  0  0  0  0  0
   14.0000   12.5510    2.9100 C   0  0  0  0  0  0  0  0  0  0  0  0
   12.7070   12.9370    3.2460 C   0  0  0  0  0  0  0  0  0  0  0  0
   12.5130   14.1070    3.9690 C   0  0  0  0  0  0  0  0  0  0  0  0
   13.5880   14.8980    4.3640 C   0  0  0  0  0  0  0  0  0  0  0  0
   11.2660   14.4820    4.2910 F   0  0  0  0  0  0  0  0  0  0  0  0
   19.6200   16.0840    3.2580 C   0  0  0  0  0  0  0  0  0  0  0  0
   19.2730   17.7410    1.6050 O   0  0  0  0  0  1  0  0  0  0  0  0
   19.9350   17.4490    2.6440 C   0  0  0  0  0  0  0  0  0  0  0  0
   20.8510   18.1050    3.2220 O   0  0  0  0  0  0  0  0  0  0  0  0
   19.1663   17.4485    5.5879 H   0  0  0  0  0  0  0  0  0  0  0  0
   17.0757   17.4789    6.9420 H   0  0  0  0  0  0  0  0  0  0  0  0
   15.0995   16.1503    6.2245 H   0  0  0  0  0  0  0  0  0  0  0  0
   17.2937   14.7642    2.7715 H   0  0  0  0  0  0  0  0  0  0  0  0
   16.1054   13.0256    3.0368 H   0  0  0  0  0  0  0  0  0  0  0  0
   14.1686   11.6282    2.3355 H   0  0  0  0  0  0  0  0  0  0  0  0
   11.8469   12.3222    2.9424 H   0  0  0  0  0  0  0  0  0  0  0  0
   13.4067   15.8202    4.9356 H   0  0  0  0  0  0  0  0  0  0  0  0
   20.4595   15.7817    3.9013 H   0  0  0  0  0  0  0  0  0  0  0  0
   19.4705   15.3681    2.4363 H   0  0  0  0  0  0  0  0  0  0  0  0
  2  1  2  0
  3  2  1  0
  4  3  2  0
  5  4  1  0
  6  5  2  0
  6  1  1  0
  7  5  1  0
  8  7  2  0
  9  8  1  0
 10  9  2  0
 11 10  1  0
 12 11  2  0
 12  7  1  0
 13 11  1  0
 14  1  1  0
 16 14  1  0
 16 15  1  0
 17 16  2  0
  2 18  1  0
  3 19  1  0
  4 20  1  0
  6 21  1  0
  8 22  1  0
  9 23  1  0
 10 24  1  0
 12 25  1  0
 14 26  1  0
 14 27  1  0
M  CHG  1  15  -1
M  END
$$$$
=
     RDKit          3D

 20 21  0  0  0  0  0  0  0  0999 V2000
   17.8620   14.6450    4.1100 C   0  0  0  0  0  0  0  0  0  0  0  0
   16.7020   15.1610    4.4810 N   0  0  0  0  0  0  0  0  0  0  0  0
   15.6420   14.4120    4.0060 C   0  0  0  0  0  0  0  0  0  0  0  0
   15.9910   13.2960    3.2530 C   0  0  0  0  0  0  0  0  0  0  0  0
   17.7010   13.2050    3.1540 S   0  0  0  0  0  0  0  0  0  0  0  0
   15.0240   12.4370    2.7020 C   0  0  0  0  0  0  0  0  0  0  0  0
   13.6740   12.7290    2.9280 C   0  0  0  0  0  0  0  0  0  0  0  0
   13.3010   13.8400    3.6770 C   0  0  0  0  0  0  0  0  0  0  0  0
   14.2750   14.6850    4.2200 C   0  0  0  0  0  0  0  0  0  0  0  0
   19.7250   15.1040    5.6550 C   0  0  0  0  0  0  0  0  0  0  0  0
   19.1270   15.2080    4.4580 C   0  0  0  0  0  0  0  0  0  0  0  0
   21.3930   15.7620    7.1530 O   0  0  0  0  0  1  0  0  0  0  0  0
   21.0810   15.7430    5.9280 C   0  0  0  0  0  0  0  0  0  0  0  0
   21.7170   16.1690    4.9270 O   0  0  0  0  0  0  0  0  0  0  0  0
   15.3204   11.5591    2.1092 H   0  0  0  0  0  0  0  0  0  0  0  0
   12.8984   12.0717    2.5081 H   0  0  0  0  0  0  0  0  0  0  0  0
   12.2352   14.0554    3.8433 H   0  0  0  0  0  0  0  0  0  0  0  0
   13.9749   15.5614    4.8132 H   0  0  0  0  0  0  0  0  0  0  0  0
   19.2241   14.5439    6.4584 H   0  0  0  0  0  0  0  0  0  0  0  0
   19.6567   15.7754    3.6786 H   0  0  0  0  0  0  0  0  0  0  0  0
  2  1  2  0
  3  2  1  0
  4  3  2  0
  5  4  1  0
  5  1  1  0
  6  4  1  0
  7  6  2  0
  8  7  1  0
  9  8  2  0
  9  3  1  0
 11  1  1  0
 11 10  2  0
 13 12  1  0
 13 10  1  0
 14 13  2  0
  6 15  1  0
  7 16  1  0
  8 17  1  0
  9 18  1  0
 10 19  1  0
 11 20  1  0
M  CHG  1  12  -1
M  END
$$$$
=
     RDKit          3D

 27 27  0  0  0  0  0  0  0  0999 V2000
   18.7740   15.6530    4.8130 C   0  0  1  0  0  0  0  0  0  0  0  0
   17.3320   15.2080    4.5850 C   0  0  0  0  0  0  0  0  0  0  0  0
   16.9990   14.3200    3.5480 C   0  0  0  0  0  0  0  0  0  0  0  0
   15.6740   13.9350    3.3380 C   0  0  0  0  0  0  0  0  0  0  0  0
   14.6640   14.4320    4.1610 C   0  0  0  0  0  0  0  0  0  0  0  0
   14.9800   15.3110    5.1950 C   0  0  0  0  0  0  0  0  0  0  0  0
   16.3050   15.6970    5.4060 C   0  0  0  0  0  0  0  0  0  0  0  0
   18.8240   16.9330    5.5160 N   0  0  0  0  0  0  0  0  0  0  0  0
   19.3310   18.0650    4.9240 C   0  0  0  0  0  0  0  0  0  0  0  0
   19.5870   18.1920    3.7300 O   0  0  0  0  0  0  0  0  0  0  0  0
   19.5690   19.1870    5.9010 C   0  0  0  0  0  0  0  0  0  0  0  0
   19.5240   14.5640    5.5860 C   0  0  0  0  0  0  0  0  0  0  0  0
   20.9570   15.3210    7.3000 O   0  0  0  0  0  1  0  0  0  0  0  0
   20.8490   15.1420    6.0570 C   0  0  0  0  0  0  0  0  0  0  0  0
   21.6790   15.3860    5.1290 O   0  0  0  0  0  0  0  0  0  0  0  0
   19.2640   15.8004    3.8393 H   0  0  0  0  0  0  0  0  0  0  0  0
   17.7908   13.9242    2.8950 H   0  0  0  0  0  0  0  0  0  0  0  0
   15.4263   13.2392    2.5229 H   0  0  0  0  0  0  0  0  0  0  0  0
   13.6193   14.1306    3.9942 H   0  0  0  0  0  0  0  0  0  0  0  0
   14.1841   15.7015    5.8462 H   0  0  0  0  0  0  0  0  0  0  0  0
   16.5461   16.3915    6.2242 H   0  0  0  0  0  0  0  0  0  0  0  0
   18.4696   16.9884    6.4815 H   0  0  0  0  0  0  0  0  0  0  0  0
   19.4874   18.8022    6.9283 H   0  0  0  0  0  0  0  0  0  0  0  0
   20.5753   19.6026    5.7440 H   0  0  0  0  0  0  0  0  0  0  0  0
   18.8181   19.9754    5.7440 H   0  0  0  0  0  0  0  0  0  0  0  0
   18.9275   14.2454    6.4535 H   0  0  0  0  0  0  0  0  0  0  0  0
   19.6987   13.6913    4.9395 H   0  0  0  0  0  0  0  0  0  0  0  0
  2  1  1  0
  3  2  2  0
  4  3  1  0
  5  4  2  0
  6  5  1  0
  7  6  2  0
  7  2  1  0
  8  1  1  0
  9  8  1  0
 10  9  2  0
 11  9  1  0
 12  1  1  0
 14 13  1  0
 14 12  1  0
 15 14  2  0
  1 16  1  6
  3 17  1  0
  4 18  1  0
  5 19  1  0
  6 20  1  0
  7 21  1  0
  8 22  1  0
 11 23  1  0
 11 24  1  0
 11 25  1  0
 12 26  1  0
 12 27  1  0
M  CHG  1  13  -1
M  END
$$$$
=
     RDKit          3D

 55 58  0  0  0  0  0  0  0  0999 V2000
   13.3200   13.2450    3.3610 O   0  0  0  0  0  0  0  0  0  0  0  0
   16.5740   15.6640    4.3910 C   0  0  0  0  0  0  0  0  0  0  0  0
   16.7400   14.5150    3.6060 C   0  0  0  0  0  0  0  0  0  0  0  0
   15.6380   13.7180    3.2760 C   0  0  0  0  0  0  0  0  0  0  0  0
   14.3680   14.0480    3.7490 C   0  0  0  0  0  0  0  0  0  0  0  0
   14.1830   15.1940    4.5200 C   0  0  0  0  0  0  0  0  0  0  0  0
   15.2840   15.9920    4.8470 C   0  0  0  0  0  0  0  0  0  0  0  0
   17.4860   17.4100    5.6540 O   0  0  0  0  0  0  0  0  0  0  0  0
   17.7100   16.5570    4.7990 C   0  0  0  0  0  0  0  0  0  0  0  0
   18.9090   16.3430    4.1570 N   0  0  0  0  0  0  0  0  0  0  0  0
   20.1560   16.9870    4.3420 C   0  0  0  0  0  0  0  0  0  0  0  0
   20.5670   18.0660    3.5480 C   0  0  0  0  0  0  0  0  0  0  0  0
   21.8050   18.6820    3.7540 C   0  0  0  0  0  0  0  0  0  0  0  0
   22.6490   18.2270    4.7600 C   0  0  0  0  0  0  0  0  0  0  0  0
   22.2520   17.1580    5.5610 C   0  0  0  0  0  0  0  0  0  0  0  0
   21.0070   16.5200    5.3740 C   0  0  0  0  0  0  0  0  0  0  0  0
   20.6320   15.3650    6.2910 C   0  0  0  0  0  0  0  0  0  0  0  0
   20.9960   15.4500    7.5130 O   0  0  0  0  0  0  0  0  0  0  0  0
   19.9860   14.3940    5.7850 O   0  0  0  0  0  1  0  0  0  0  0  0
   12.1130   13.4080    4.0050 C   0  0  0  0  0  0  0  0  0  0  0  0
   11.9840   13.4760    5.3920 C   0  0  0  0  0  0  0  0  0  0  0  0
   10.7140   13.5900    5.9680 C   0  0  0  0  0  0  0  0  0  0  0  0
    9.5580   13.6240    5.1680 C   0  0  0  0  0  0  0  0  0  0  0  0
    9.6990   13.5260    3.7770 C   0  0  0  0  0  0  0  0  0  0  0  0
   10.9720   13.4170    3.2010 C   0  0  0  0  0  0  0  0  0  0  0  0
    8.2280   13.7200    5.8610 C   0  0  0  0  0  0  0  0  0  0  0  0
    8.1690   14.3920    6.8890 O   0  0  0  0  0  0  0  0  0  0  0  0
    7.1820   13.0460    5.2710 N   0  0  0  0  0  0  0  0  0  0  0  0
    5.8380   12.9200    5.6970 C   0  0  0  0  0  0  0  0  0  0  0  0
    4.9630   14.0140    5.7490 C   0  0  0  0  0  0  0  0  0  0  0  0
    3.6400   13.8570    6.1730 C   0  0  0  0  0  0  0  0  0  0  0  0
    3.1750   12.6040    6.5510 C   0  0  0  0  0  0  0  0  0  0  0  0
    4.0340   11.5080    6.5080 C   0  0  0  0  0  0  0  0  0  0  0  0
    5.3730   11.6390    6.0840 C   0  0  0  0  0  0  0  0  0  0  0  0
    6.2610   10.4030    6.0710 C   0  0  0  0  0  0  0  0  0  0  0  0
    5.7920    9.3540    5.5120 O   0  0  0  0  0  0  0  0  0  0  0  0
    7.4070   10.4940    6.6140 O   0  0  0  0  0  1  0  0  0  0  0  0
   17.7422   14.2380    3.2472 H   0  0  0  0  0  0  0  0  0  0  0  0
   15.7737   12.8293    2.6422 H   0  0  0  0  0  0  0  0  0  0  0  0
   13.1769   15.4693    4.8693 H   0  0  0  0  0  0  0  0  0  0  0  0
   15.1395   16.8878    5.4688 H   0  0  0  0  0  0  0  0  0  0  0  0
   18.8969   15.6067    3.4368 H   0  0  0  0  0  0  0  0  0  0  0  0
   19.9052   18.4341    2.7502 H   0  0  0  0  0  0  0  0  0  0  0  0
   22.1111   19.5270    3.1197 H   0  0  0  0  0  0  0  0  0  0  0  0
   23.6248   18.7079    4.9230 H   0  0  0  0  0  0  0  0  0  0  0  0
   22.9238   16.8036    6.3566 H   0  0  0  0  0  0  0  0  0  0  0  0
   12.8783   13.4401    6.0314 H   0  0  0  0  0  0  0  0  0  0  0  0
   10.6185   13.6539    7.0620 H   0  0  0  0  0  0  0  0  0  0  0  0
    8.8063   13.5347    3.1343 H   0  0  0  0  0  0  0  0  0  0  0  0
   11.0726   13.3380    2.1085 H   0  0  0  0  0  0  0  0  0  0  0  0
    7.4112   12.5628    4.3907 H   0  0  0  0  0  0  0  0  0  0  0  0
    5.3225   15.0103    5.4519 H   0  0  0  0  0  0  0  0  0  0  0  0
    2.9669   14.7264    6.2072 H   0  0  0  0  0  0  0  0  0  0  0  0
    2.1338   12.4777    6.8826 H   0  0  0  0  0  0  0  0  0  0  0  0
    3.6600   10.5190    6.8113 H   0  0  0  0  0  0  0  0  0  0  0  0
  3  2  2  0
  4  3  1  0
  5  4  2  0
  5  1  1  0
  6  5  1  0
  7  6  2  0
  7  2  1  0
  9  2  1  0
  9  8  2  0
 10  9  1  0
 11 10  1  0
 12 11  2  0
 13 12  1  0
 14 13  2  0
 15 14  1  0
 16 11  1  0
 16 15  2  0
 17 16  1  0
 18 17  2  0
 19 17  1  0
 20  1  1  0
 21 20  2  0
 22 21  1  0
 23 22  2  0
 24 23  1  0
 25 24  2  0
 25 20  1  0
 26 23  1  0
 27 26  2  0
 28 26  1  0
 29 28  1  0
 30 29  2  0
 31 30  1  0
 32 31  2  0
 33 32  1  0
 34 33  2  0
 34 29  1  0
 35 34  1  0
 36 35  2  0
 37 35  1  0
  3 38  1  0
  4 39  1  0
  6 40  1  0
  7 41  1  0
 10 42  1  0
 12 43  1  0
 13 44  1  0
 14 45  1  0
 15 46  1  0
 21 47  1  0
 22 48  1  0
 24 49  1  0
 25 50  1  0
 28 51  1  0
 30 52  1  0
 31 53  1  0
 32 54  1  0
 33 55  1  0
M  CHG  2  19  -1  37  -1
M  END
$$$$
=
     RDKit          3D

 44 46  0  0  0  0  0  0  0  0999 V2000
   17.5550   15.8390    4.3710 C   0  0  0  0  0  0  0  0  0  0  0  0
   16.9960   15.0660    3.1560 C   0  0  0  0  0  0  0  0  0  0  0  0
   16.0310   13.9620    3.5660 C   0  0  0  0  0  0  0  0  0  0  0  0
   14.9270   14.5000    4.3650 N   0  0  0  0  0  0  0  0  0  0  0  0
   15.3440   15.2860    5.5280 C   0  0  0  0  0  0  0  0  0  0  0  0
   16.3530   16.3740    5.1660 C   0  0  0  0  0  0  0  0  0  0  0  0
   13.6390   13.9530    4.3760 C   0  0  0  0  0  0  0  0  0  0  0  0
   12.8170   14.2450    5.2480 O   0  0  0  0  0  0  0  0  0  0  0  0
   18.4970   14.8270    5.1140 C   0  0  0  0  0  0  0  0  0  0  0  0
   18.6240   14.9820    6.3630 O   0  0  0  0  0  0  0  0  0  0  0  0
   19.0650   13.9720    4.3710 O   0  0  0  0  0  1  0  0  0  0  0  0
   18.3040   16.9330    3.7680 O   0  0  0  0  0  0  0  0  0  0  0  0
   22.9370   17.5220    3.8910 F   0  0  0  0  0  0  0  0  0  0  0  0
   21.7390   17.8250    4.4100 C   0  0  0  0  0  0  0  0  0  0  0  0
   21.6630   18.7070    5.4790 C   0  0  0  0  0  0  0  0  0  0  0  0
   20.4160   19.0160    6.0140 C   0  0  0  0  0  0  0  0  0  0  0  0
   19.2570   18.4450    5.4730 C   0  0  0  0  0  0  0  0  0  0  0  0
   19.3340   17.5650    4.3960 C   0  0  0  0  0  0  0  0  0  0  0  0
   20.5920   17.2540    3.8700 C   0  0  0  0  0  0  0  0  0  0  0  0
   13.2910   13.0210    3.2210 C   0  0  0  0  0  0  0  0  0  0  0  0
   11.8140   12.8050    2.9860 C   0  0  0  0  0  0  0  0  0  0  0  0
   10.8690   13.7320    3.4260 C   0  0  0  0  0  0  0  0  0  0  0  0
    9.5230   13.5160    3.1420 C   0  0  0  0  0  0  0  0  0  0  0  0
    9.1520   12.3920    2.4170 C   0  0  0  0  0  0  0  0  0  0  0  0
   10.1510   11.5300    1.9980 C   0  0  0  0  0  0  0  0  0  0  0  0
   11.4630   11.7160    2.2530 N   0  0  0  0  0  0  0  0  0  0  0  0
   16.4664   15.7730    2.5005 H   0  0  0  0  0  0  0  0  0  0  0  0
   17.8446   14.5952    2.6380 H   0  0  0  0  0  0  0  0  0  0  0  0
   15.6226   13.4870    2.6618 H   0  0  0  0  0  0  0  0  0  0  0  0
   16.5778   13.2263    4.1741 H   0  0  0  0  0  0  0  0  0  0  0  0
   14.4557   15.7612    5.9697 H   0  0  0  0  0  0  0  0  0  0  0  0
   15.8307   14.6010    6.2379 H   0  0  0  0  0  0  0  0  0  0  0  0
   15.8431   17.1369    4.5593 H   0  0  0  0  0  0  0  0  0  0  0  0
   16.7405   16.7895    6.1079 H   0  0  0  0  0  0  0  0  0  0  0  0
   22.5760   19.1556    5.8976 H   0  0  0  0  0  0  0  0  0  0  0  0
   20.3403   19.7103    6.8638 H   0  0  0  0  0  0  0  0  0  0  0  0
   18.2757   18.6941    5.9032 H   0  0  0  0  0  0  0  0  0  0  0  0
   20.6744   16.5544    3.0251 H   0  0  0  0  0  0  0  0  0  0  0  0
   13.7228   13.4436    2.3018 H   0  0  0  0  0  0  0  0  0  0  0  0
   13.7025   12.0371    3.4904 H   0  0  0  0  0  0  0  0  0  0  0  0
   11.1832   14.6225    3.9902 H   0  0  0  0  0  0  0  0  0  0  0  0
    8.7609   14.2294    3.4889 H   0  0  0  0  0  0  0  0  0  0  0  0
    8.0960   12.1922    2.1824 H   0  0  0  0  0  0  0  0  0  0  0  0
    9.8576   10.6397    1.4225 H   0  0  0  0  0  0  0  0  0  0  0  0
  2  1  1  0
  3  2  1  0
  4  3  1  0
  5  4  1  0
  6  5  1  0
  6  1  1  0
  7  4  1  0
  8  7  2  0
  9  1  1  0
 10  9  2  0
 11  9  1  0
 12  1  1  0
 14 13  1  0
 15 14  2  0
 16 15  1  0
 17 16  2  0
 18 12  1  0
 18 17  1  0
 19 18  2  0
 19 14  1  0
 20  7  1  0
 21 20  1  0
 22 21  2  0
 23 22  1  0
 24 23  2  0
 25 24  1  0
 26 25  2  0
 26 21  1  0
  2 27  1  0
  2 28  1  0
  3 29  1  0
  3 30  1  0
  5 31  1  0
  5 32  1  0
  6 33  1  0
  6 34  1  0
 15 35  1  0
 16 36  1  0
 17 37  1  0
 19 38  1  0
 20 39  1  0
 20 40  1  0
 22 41  1  0
 23 42  1  0
 24 43  1  0
 25 44  1  0
M  CHG  1  11  -1
M  END
$$$$
=
     RDKit          3D

 41 42  0  0  0  0  0  0  0  0999 V2000
   27.9400   27.9770   15.5010 C   0  0  1  0  0  0  0  0  0  0  0  0
   27.4730   27.6890   14.0710 C   0  0  2  0  0  0  0  0  0  0  0  0
   26.4580   27.8770   15.1580 C   0  0  1  0  0  0  0  0  0  0  0  0
   27.5530   26.4440   13.2120 C   0  0  0  0  0  0  0  0  0  0  0  0
   28.5770   25.4950   13.2270 C   0  0  0  0  0  0  0  0  0  0  0  0
   28.5740   24.3840   12.3690 C   0  0  0  0  0  0  0  0  0  0  0  0
   27.5480   24.1920   11.4500 C   0  0  0  0  0  0  0  0  0  0  0  0
   26.5210   25.1260   11.3950 C   0  0  0  0  0  0  0  0  0  0  0  0
   26.5330   26.2290   12.2600 C   0  0  0  0  0  0  0  0  0  0  0  0
   27.6640   23.0730   10.6720 O   0  0  0  0  0  0  0  0  0  0  0  0
   28.8140   22.2660   10.8820 C   0  0  0  0  0  0  0  0  0  0  0  0
   28.5410   27.0050   16.4200 C   0  0  0  0  0  0  0  0  0  0  0  0
   28.2250   27.1110   17.6440 O   0  0  0  0  0  0  0  0  0  0  0  0
   29.4520   26.2470   15.9630 O   0  0  0  0  0  1  0  0  0  0  0  0
   25.4930   26.4640   15.7430 S   0  0  0  0  0  6  0  0  0  0  0  0
   24.9990   26.8290   17.0610 O   0  0  0  0  0  0  0  0  0  0  0  0
   26.1360   25.1920   15.4900 O   0  0  0  0  0  0  0  0  0  0  0  0
   24.0470   26.4600   14.7080 C   0  0  0  0  0  0  0  0  0  0  0  0
   23.4080   25.0960   14.5420 C   0  0  0  0  0  0  0  0  0  0  0  0
   28.4470   29.3800   15.8060 C   0  0  0  0  0  0  0  0  0  0  0  0
   30.7830   29.5230   16.1470 C   0  0  0  0  0  0  0  0  0  0  0  0
   29.7240   29.6460   15.1990 O   0  0  0  0  0  0  0  0  0  0  0  0
   27.7550   28.1379   13.1072 H   0  0  0  0  0  0  0  0  0  0  0  0
   25.5866   28.5340   15.2960 H   0  0  0  0  0  0  0  0  0  0  0  0
   29.4114   25.6218   13.9325 H   0  0  0  0  0  0  0  0  0  0  0  0
   29.3954   23.6544   12.4244 H   0  0  0  0  0  0  0  0  0  0  0  0
   25.6999   25.0002   10.6739 H   0  0  0  0  0  0  0  0  0  0  0  0
   25.7123   26.9584   12.1941 H   0  0  0  0  0  0  0  0  0  0  0  0
   28.9853   22.1458   11.9619 H   0  0  0  0  0  0  0  0  0  0  0  0
   28.6577   21.2785   10.4234 H   0  0  0  0  0  0  0  0  0  0  0  0
   29.6895   22.7488   10.4234 H   0  0  0  0  0  0  0  0  0  0  0  0
   23.3031   27.1382   15.1514 H   0  0  0  0  0  0  0  0  0  0  0  0
   24.3724   26.7814   13.7076 H   0  0  0  0  0  0  0  0  0  0  0  0
   23.2052   24.6631   15.5327 H   0  0  0  0  0  0  0  0  0  0  0  0
   22.4642   25.1984   13.9864 H   0  0  0  0  0  0  0  0  0  0  0  0
   24.0908   24.4364   13.9864 H   0  0  0  0  0  0  0  0  0  0  0  0
   27.7167   30.1098   15.4265 H   0  0  0  0  0  0  0  0  0  0  0  0
   28.5702   29.4624   16.8960 H   0  0  0  0  0  0  0  0  0  0  0  0
   30.3706   29.5709   17.1657 H   0  0  0  0  0  0  0  0  0  0  0  0
   31.2938   28.5595   16.0031 H   0  0  0  0  0  0  0  0  0  0  0  0
   31.5011   30.3438   16.0031 H   0  0  0  0  0  0  0  0  0  0  0  0
  2  1  1  0
  3  2  1  0
  3  1  1  0
  4  2  1  0
  5  4  2  0
  6  5  1  0
  7  6  2  0
  8  7  1  0
  9  8  2  0
  9  4  1  0
 10  7  1  0
 11 10  1  0
  1 12  1  1
 13 12  2  0
 14 12  1  0
 15  3  1  0
 16 15  2  0
 17 15  2  0
 18 15  1  0
 19 18  1  0
 20  1  1  0
 22 21  1  0
 22 20  1  0
  2 23  1  6
  3 24  1  6
  5 25  1  0
  6 26  1  0
  8 27  1  0
  9 28  1  0
 11 29  1  0
 11 30  1  0
 11 31  1  0
 18 32  1  0
 18 33  1  0
 19 34  1  0
 19 35  1  0
 19 36  1  0
 20 37  1  0
 20 38  1  0
 21 39  1  0
 21 40  1  0
 21 41  1  0
M  CHG  1  14  -1
M  END
$$$$
=
     RDKit          3D

 20 20  0  0  0  0  0  0  0  0999 V2000
   17.6500   15.5390    4.2510 C   0  0  0  0  0  0  0  0  0  0  0  0
   16.6920   16.2610    4.9860 C   0  0  0  0  0  0  0  0  0  0  0  0
   15.3460   15.8930    4.9820 C   0  0  0  0  0  0  0  0  0  0  0  0
   14.9290   14.7910    4.2400 C   0  0  0  0  0  0  0  0  0  0  0  0
   15.8710   14.0650    3.4990 C   0  0  0  0  0  0  0  0  0  0  0  0
   17.2220   14.4340    3.4980 C   0  0  0  0  0  0  0  0  0  0  0  0
   15.4310   12.9030    2.7170 N   0  0  0  0  0  4  0  0  0  0  0  0
   14.2150   12.6470    2.7000 O   0  0  0  0  0  0  0  0  0  0  0  0
   16.2870   12.2310    2.1240 O   0  0  0  0  0  1  0  0  0  0  0  0
   19.0980   15.9810    4.2830 C   0  0  2  0  0  0  0  0  0  0  0  0
   19.3020   17.1940    2.2530 O   0  0  0  0  0  1  0  0  0  0  0  0
   19.3330   17.3280    3.5190 C   0  0  0  0  0  0  0  0  0  0  0  0
   19.5730   18.3500    4.2190 O   0  0  0  0  0  0  0  0  0  0  0  0
   19.9510   14.9570    3.7080 O   0  0  0  0  0  0  0  0  0  0  0  0
   17.0104   17.1332    5.5757 H   0  0  0  0  0  0  0  0  0  0  0  0
   14.6150   16.4730    5.5645 H   0  0  0  0  0  0  0  0  0  0  0  0
   13.8701   14.4932    4.2356 H   0  0  0  0  0  0  0  0  0  0  0  0
   17.9486   13.8575    2.9066 H   0  0  0  0  0  0  0  0  0  0  0  0
   19.3534   16.1416    5.3408 H   0  0  0  0  0  0  0  0  0  0  0  0
   20.3816   14.4401    4.4343 H   0  0  0  0  0  0  0  0  0  0  0  0
  2  1  2  0
  3  2  1  0
  4  3  2  0
  5  4  1  0
  6  5  2  0
  6  1  1  0
  7  5  1  0
  8  7  2  0
  9  7  1  0
 10  1  1  0
 12 10  1  0
 12 11  1  0
 13 12  2  0
 14 10  1  0
  2 15  1  0
  3 16  1  0
  4 17  1  0
  6 18  1  0
 10 19  1  1
 14 20  1  0
M  CHG  3   7   1   9  -1  11  -1
M  END
$$$$
=
     RDKit          3D

 43 46  0  0  0  0  0  0  0  0999 V2000
   23.0510   25.4610   13.7150 C   0  0  2  0  0  0  0  0  0  0  0  0
   22.5210   26.5880   14.6180 C   0  0  0  0  0  0  0  0  0  0  0  0
   23.5210   27.0330   15.6710 C   0  0  0  0  0  0  0  0  0  0  0  0
   23.1600   27.4290   16.7790 O   0  0  0  0  0  0  0  0  0  0  0  0
   24.8390   27.0860   15.2980 N   0  0  0  0  0  0  0  0  0  0  0  0
   25.3110   26.5230   14.1250 C   0  0  0  0  0  0  0  0  0  0  0  0
   24.4770   25.7580   13.3420 C   0  0  0  0  0  0  0  0  0  0  0  0
   25.3040   25.0680   12.0270 S   0  0  0  0  0  0  0  0  0  0  0  0
   26.7700   25.8410   12.4620 C   0  0  0  0  0  0  0  0  0  0  0  0
   26.6520   26.5820   13.6290 C   0  0  0  0  0  0  0  0  0  0  0  0
   27.7720   27.2700   14.2610 C   0  0  0  0  0  0  0  0  0  0  0  0
   27.9500   28.6450   14.0600 C   0  0  0  0  0  0  0  0  0  0  0  0
   28.9940   29.3180   14.6990 C   0  0  0  0  0  0  0  0  0  0  0  0
   29.8530   28.6110   15.5340 C   0  0  0  0  0  0  0  0  0  0  0  0
   29.6920   27.2470   15.7420 C   0  0  0  0  0  0  0  0  0  0  0  0
   28.6480   26.5730   15.1060 C   0  0  0  0  0  0  0  0  0  0  0  0
   30.8510   29.2600   16.1520 F   0  0  0  0  0  0  0  0  0  0  0  0
   20.8370   23.7070   11.1030 C   0  0  0  0  0  0  0  0  0  0  0  0
   20.3480   24.8010   10.3890 C   0  0  0  0  0  0  0  0  0  0  0  0
   20.7220   26.0960   10.7530 C   0  0  0  0  0  0  0  0  0  0  0  0
   21.5900   26.3040   11.8240 C   0  0  0  0  0  0  0  0  0  0  0  0
   22.1030   25.2180   12.5480 C   0  0  0  0  0  0  0  0  0  0  0  0
   21.7130   23.9200   12.1720 C   0  0  0  0  0  0  0  0  0  0  0  0
   19.1960   22.0860   10.5540 C   0  0  0  0  0  0  0  0  0  0  0  0
   20.5520   22.3930   10.8470 O   0  0  0  0  0  0  0  0  0  0  0  0
   28.0870   25.6800   11.5970 C   0  0  0  0  0  0  0  0  0  0  0  0
   28.6440   26.7540   11.2160 O   0  0  0  0  0  0  0  0  0  0  0  0
   28.4720   24.4950   11.3540 O   0  0  0  0  0  1  0  0  0  0  0  0
   23.0742   24.4992   14.2483 H   0  0  0  0  0  0  0  0  0  0  0  0
   22.2705   27.4531   13.9864 H   0  0  0  0  0  0  0  0  0  0  0  0
   21.6415   26.1945   15.1488 H   0  0  0  0  0  0  0  0  0  0  0  0
   25.5073   27.5658   15.9177 H   0  0  0  0  0  0  0  0  0  0  0  0
   27.2661   29.1958   13.3975 H   0  0  0  0  0  0  0  0  0  0  0  0
   29.1356   30.3977   14.5433 H   0  0  0  0  0  0  0  0  0  0  0  0
   30.3820   26.7020   16.4030 H   0  0  0  0  0  0  0  0  0  0  0  0
   28.5121   25.4935   15.2678 H   0  0  0  0  0  0  0  0  0  0  0  0
   19.6677   24.6434    9.5391 H   0  0  0  0  0  0  0  0  0  0  0  0
   20.3297   26.9568   10.1917 H   0  0  0  0  0  0  0  0  0  0  0  0
   21.8750   27.3290   12.1036 H   0  0  0  0  0  0  0  0  0  0  0  0
   22.1044   23.0562   12.7293 H   0  0  0  0  0  0  0  0  0  0  0  0
   18.6375   21.9596   11.4932 H   0  0  0  0  0  0  0  0  0  0  0  0
   18.7520   22.9064    9.9710 H   0  0  0  0  0  0  0  0  0  0  0  0
   19.1487   21.1544    9.9710 H   0  0  0  0  0  0  0  0  0  0  0  0
  2  1  1  0
  3  2  1  0
  4  3  2  0
  5  3  1  0
  6  5  1  0
  7  6  2  0
  7  1  1  0
  8  7  1  0
  9  8  1  0
 10  9  2  0
 10  6  1  0
 11 10  1  0
 12 11  2  0
 13 12  1  0
 14 13  2  0
 15 14  1  0
 16 15  2  0
 16 11  1  0
 17 14  1  0
 19 18  2  0
 20 19  1  0
 21 20  2  0
 22 21  1  0
 22  1  1  0
 23 18  1  0
 23 22  2  0
 25 24  1  0
 25 18  1  0
 26  9  1  0
 27 26  2  0
 28 26  1  0
  1 29  1  1
  2 30  1  0
  2 31  1  0
  5 32  1  0
 12 33  1  0
 13 34  1  0
 15 35  1  0
 16 36  1  0
 19 37  1  0
 20 38  1  0
 21 39  1  0
 23 40  1  0
 24 41  1  0
 24 42  1  0
 24 43  1  0
M  CHG  1  28  -1
M  END
$$$$
=
     RDKit          3D

 38 39  0  0  0  0  0  0  0  0999 V2000
   27.1100   26.3470   15.7120 C   0  0  0  0  0  0  0  0  0  0  0  0
   27.3400   25.5380   16.8520 C   0  0  0  0  0  0  0  0  0  0  0  0
   28.5780   24.9490   17.1120 C   0  0  0  0  0  0  0  0  0  0  0  0
   29.6040   25.1290   16.2030 C   0  0  0  0  0  0  0  0  0  0  0  0
   29.3990   25.8750   15.0420 C   0  0  0  0  0  0  0  0  0  0  0  0
   28.1680   26.5160   14.7800 C   0  0  0  0  0  0  0  0  0  0  0  0
   24.6450   26.1460   15.3120 C   0  0  0  0  0  0  0  0  0  0  0  0
   25.7420   26.8960   15.5270 C   0  0  0  0  0  0  0  0  0  0  0  0
   22.4560   26.8560   15.9530 O   0  0  0  0  0  1  0  0  0  0  0  0
   23.2510   26.6870   14.9900 C   0  0  0  0  0  0  0  0  0  0  0  0
   23.0850   26.9580   13.7610 O   0  0  0  0  0  0  0  0  0  0  0  0
   28.0690   27.3500   13.5600 C   0  0  0  0  0  0  0  0  0  0  0  0
   27.6980   26.9090   12.3390 C   0  0  0  0  0  0  0  0  0  0  0  0
   27.3420   25.5440   11.9220 C   0  0  0  0  0  0  0  0  0  0  0  0
   28.3230   24.5820   11.6330 C   0  0  0  0  0  0  0  0  0  0  0  0
   27.9720   23.2970   11.2110 C   0  0  0  0  0  0  0  0  0  0  0  0
   26.6300   22.9860   11.0460 C   0  0  0  0  0  0  0  0  0  0  0  0
   25.6490   23.9460   11.2870 C   0  0  0  0  0  0  0  0  0  0  0  0
   25.9920   25.2180   11.7270 C   0  0  0  0  0  0  0  0  0  0  0  0
   24.3340   23.6300   11.0890 O   0  0  0  0  0  0  0  0  0  0  0  0
   26.2280   21.7400   10.6420 O   0  0  0  0  0  0  0  0  0  0  0  0
   28.5240   28.8380   13.7440 C   0  0  0  0  0  0  0  0  0  0  0  0
   28.2540   29.6470   12.8060 O   0  0  0  0  0  0  0  0  0  0  0  0
   29.1100   29.1000   14.8430 O   0  0  0  0  0  1  0  0  0  0  0  0
   30.4420   25.9460   14.1460 O   0  0  0  0  0  0  0  0  0  0  0  0
   30.8400   24.5710   16.4110 O   0  0  0  0  0  0  0  0  0  0  0  0
   26.5132   25.3681   17.5574 H   0  0  0  0  0  0  0  0  0  0  0  0
   28.7346   24.3527   18.0230 H   0  0  0  0  0  0  0  0  0  0  0  0
   24.7607   25.0538   15.3729 H   0  0  0  0  0  0  0  0  0  0  0  0
   25.6172   27.9881   15.5685 H   0  0  0  0  0  0  0  0  0  0  0  0
   27.6563   27.6737   11.5494 H   0  0  0  0  0  0  0  0  0  0  0  0
   29.3858   24.8443   11.7406 H   0  0  0  0  0  0  0  0  0  0  0  0
   28.7481   22.5432   11.0126 H   0  0  0  0  0  0  0  0  0  0  0  0
   25.2089   25.9657   11.9215 H   0  0  0  0  0  0  0  0  0  0  0  0
   23.6314   24.3067   11.2581 H   0  0  0  0  0  0  0  0  0  0  0  0
   25.2642   21.5425   10.5314 H   0  0  0  0  0  0  0  0  0  0  0  0
   30.3408   26.4644   13.3087 H   0  0  0  0  0  0  0  0  0  0  0  0
   31.5635   24.7100   15.7497 H   0  0  0  0  0  0  0  0  0  0  0  0
  2  1  2  0
  3  2  1  0
  4  3  2  0
  5  4  1  0
  6  1  1  0
  6  5  2  0
  8  7  2  0
  8  1  1  0
 10  9  1  0
 10  7  1  0
 11 10  2  0
 12  6  1  0
 13 12  2  0
 14 13  1  0
 15 14  2  0
 16 15  1  0
 17 16  2  0
 18 17  1  0
 19 18  2  0
 19 14  1  0
 20 18  1  0
 21 17  1  0
 22 12  1  0
 23 22  2  0
 24 22  1  0
 25  5  1  0
 26  4  1  0
  2 27  1  0
  3 28  1  0
  7 29  1  0
  8 30  1  0
 13 31  1  0
 15 32  1  0
 16 33  1  0
 19 34  1  0
 20 35  1  0
 21 36  1  0
 25 37  1  0
 26 38  1  0
M  CHG  2   9  -1  24  -1
M  END
$$$$
=
     RDKit          3D

 44 46  0  0  0  0  0  0  0  0999 V2000
   27.4550   25.5490   13.9630 N   0  0  0  0  0  0  0  0  0  0  0  0
   26.4380   25.1310   14.7870 C   0  0  0  0  0  0  0  0  0  0  0  0
   26.8490   24.9110   16.0180 N   0  0  0  0  0  0  0  0  0  0  0  0
   28.1900   25.1860   15.9980 C   0  0  0  0  0  0  0  0  0  0  0  0
   28.6030   25.5960   14.7350 C   0  0  0  0  0  0  0  0  0  0  0  0
   29.9300   25.9430   14.4510 C   0  0  0  0  0  0  0  0  0  0  0  0
   30.8510   25.8650   15.5030 C   0  0  0  0  0  0  0  0  0  0  0  0
   30.4600   25.4590   16.7780 C   0  0  0  0  0  0  0  0  0  0  0  0
   29.1280   25.1160   17.0420 C   0  0  0  0  0  0  0  0  0  0  0  0
   27.3730   25.9860   12.5830 C   0  0  0  0  0  0  0  0  0  0  0  0
   26.4790   24.6340   10.8610 O   0  0  0  0  0  1  0  0  0  0  0  0
   27.4700   24.8140   11.6240 C   0  0  0  0  0  0  0  0  0  0  0  0
   28.5620   24.1740   11.6680 O   0  0  0  0  0  0  0  0  0  0  0  0
   24.7850   24.9670   14.2790 S   0  0  0  0  0  0  0  0  0  0  0  0
   24.1870   26.6750   14.4950 C   0  0  0  0  0  0  0  0  0  0  0  0
   24.8640   27.4080   15.6540 C   0  0  0  0  0  0  0  0  0  0  0  0
   25.7260   28.4340   15.1300 O   0  0  0  0  0  0  0  0  0  0  0  0
   26.8180   28.5900   15.9470 C   0  0  0  0  0  0  0  0  0  0  0  0
   26.6690   28.2810   17.2990 C   0  0  0  0  0  0  0  0  0  0  0  0
   27.7490   28.4200   18.1620 C   0  0  0  0  0  0  0  0  0  0  0  0
   28.9750   28.8660   17.6720 C   0  0  0  0  0  0  0  0  0  0  0  0
   29.1410   29.1680   16.3080 C   0  0  0  0  0  0  0  0  0  0  0  0
   28.0580   28.9930   15.4200 C   0  0  0  0  0  0  0  0  0  0  0  0
   28.1960   29.2950   13.9480 C   0  0  0  0  0  0  0  0  0  0  0  0
   30.4840   29.6470   15.8230 C   0  0  0  0  0  0  0  0  0  0  0  0
   30.2358   26.2633   13.4441 H   0  0  0  0  0  0  0  0  0  0  0  0
   31.9030   26.1291   15.3198 H   0  0  0  0  0  0  0  0  0  0  0  0
   31.2055   25.4075   17.5852 H   0  0  0  0  0  0  0  0  0  0  0  0
   28.8214   24.7973   18.0492 H   0  0  0  0  0  0  0  0  0  0  0  0
   26.4121   26.4980   12.4263 H   0  0  0  0  0  0  0  0  0  0  0  0
   28.2147   26.6659   12.3847 H   0  0  0  0  0  0  0  0  0  0  0  0
   24.3809   27.2333   13.5673 H   0  0  0  0  0  0  0  0  0  0  0  0
   23.1131   26.6187   14.7264 H   0  0  0  0  0  0  0  0  0  0  0  0
   24.0977   27.8652   16.2972 H   0  0  0  0  0  0  0  0  0  0  0  0
   25.4576   26.6945   16.2444 H   0  0  0  0  0  0  0  0  0  0  0  0
   25.6995   27.9284   17.6808 H   0  0  0  0  0  0  0  0  0  0  0  0
   27.6366   28.1786   19.2293 H   0  0  0  0  0  0  0  0  0  0  0  0
   29.8244   28.9835   18.3610 H   0  0  0  0  0  0  0  0  0  0  0  0
   28.6500   30.2885   13.8185 H   0  0  0  0  0  0  0  0  0  0  0  0
   28.8362   28.5350   13.4762 H   0  0  0  0  0  0  0  0  0  0  0  0
   27.2024   29.2816   13.4762 H   0  0  0  0  0  0  0  0  0  0  0  0
   31.1255   29.8758   16.6868 H   0  0  0  0  0  0  0  0  0  0  0  0
   30.9554   28.8616   15.2140 H   0  0  0  0  0  0  0  0  0  0  0  0
   30.3520   30.5535   15.2140 H   0  0  0  0  0  0  0  0  0  0  0  0
  2  1  1  0
  3  2  2  0
  4  3  1  0
  5  4  2  0
  5  1  1  0
  6  5  1  0
  7  6  2  0
  8  7  1  0
  9  4  1  0
  9  8  2  0
 10  1  1  0
 12 11  1  0
 12 10  1  0
 13 12  2  0
 14  2  1  0
 15 14  1  0
 16 15  1  0
 17 16  1  0
 18 17  1  0
 19 18  2  0
 20 19  1  0
 21 20  2  0
 22 21  1  0
 23 18  1  0
 23 22  2  0
 24 23  1  0
 25 22  1  0
  6 26  1  0
  7 27  1  0
  8 28  1  0
  9 29  1  0
 10 30  1  0
 10 31  1  0
 15 32  1  0
 15 33  1  0
 16 34  1  0
 16 35  1  0
 19 36  1  0
 20 37  1  0
 21 38  1  0
 24 39  1  0
 24 40  1  0
 24 41  1  0
 25 42  1  0
 25 43  1  0
 25 44  1  0
M  CHG  1  11  -1
M  END
$$$$
=
     RDKit          3D

 20 20  0  0  0  0  0  0  0  0999 V2000
   17.0560   14.4240    4.0440 C   0  0  0  0  0  0  0  0  0  0  0  0
   17.7430   13.4810    3.2480 C   0  0  0  0  0  0  0  0  0  0  0  0
   17.0610   12.5110    2.5160 C   0  0  0  0  0  0  0  0  0  0  0  0
   15.6750   12.4640    2.5590 C   0  0  0  0  0  0  0  0  0  0  0  0
   14.9740   13.3920    3.3300 C   0  0  0  0  0  0  0  0  0  0  0  0
   15.6430   14.3840    4.0820 C   0  0  0  0  0  0  0  0  0  0  0  0
   14.8100   15.3760    4.8700 C   0  0  0  0  0  0  0  0  0  0  0  0
   14.9340   15.1930    6.2250 F   0  0  0  0  0  0  0  0  0  0  0  0
   15.1370   16.6780    4.6710 F   0  0  0  0  0  0  0  0  0  0  0  0
   13.4720   15.2510    4.6390 F   0  0  0  0  0  0  0  0  0  0  0  0
   17.8970   15.4410    4.8060 C   0  0  0  0  0  0  0  0  0  0  0  0
   17.8140   16.6830    4.2190 F   0  0  0  0  0  0  0  0  0  0  0  0
   17.4850   15.6500    6.0940 F   0  0  0  0  0  0  0  0  0  0  0  0
   19.8060   14.3850    5.8840 O   0  0  0  0  0  1  0  0  0  0  0  0
   19.4100   14.9820    4.8300 C   0  0  0  0  0  0  0  0  0  0  0  0
   20.1080   15.2880    3.8120 O   0  0  0  0  0  0  0  0  0  0  0  0
   18.8417   13.5130    3.2049 H   0  0  0  0  0  0  0  0  0  0  0  0
   17.6194   11.7853    1.9064 H   0  0  0  0  0  0  0  0  0  0  0  0
   15.1307   11.6979    1.9873 H   0  0  0  0  0  0  0  0  0  0  0  0
   13.8750   13.3505    3.3530 H   0  0  0  0  0  0  0  0  0  0  0  0
  2  1  2  0
  3  2  1  0
  4  3  2  0
  5  4  1  0
  6  5  2  0
  6  1  1  0
  7  6  1  0
  8  7  1  0
  9  7  1  0
 10  7  1  0
 11  1  1  0
 12 11  1  0
 13 11  1  0
 15 11  1  0
 15 14  1  0
 16 15  2  0
  2 17  1  0
  3 18  1  0
  4 19  1  0
  5 20  1  0
M  CHG  1  14  -1
M  END
$$$$
=
     RDKit          3D

 37 38  0  0  0  0  0  0  0  0999 V2000
   26.9620   27.3910   14.8790 C   0  0  1  0  0  0  0  0  0  0  0  0
   28.3450   27.7720   15.5180 N   0  0  0  0  0  4  0  0  0  0  0  0
   28.8520   29.0560   14.9170 C   0  0  0  0  0  0  0  0  0  0  0  0
   29.9860   29.6470   15.7580 C   0  0  0  0  0  0  0  0  0  0  0  0
   30.7020   28.6030   16.6060 C   0  0  0  0  0  0  0  0  0  0  0  0
   29.7320   27.8710   17.5370 C   0  0  0  0  0  0  0  0  0  0  0  0
   28.2930   27.8570   17.0200 C   0  0  0  0  0  0  0  0  0  0  0  0
   27.4780   24.5690   11.6050 C   0  0  0  0  0  0  0  0  0  0  0  0
   26.3600   25.3990   11.6640 C   0  0  0  0  0  0  0  0  0  0  0  0
   26.2010   26.2920   12.7320 C   0  0  0  0  0  0  0  0  0  0  0  0
   27.1520   26.3680   13.7650 C   0  0  0  0  0  0  0  0  0  0  0  0
   28.2710   25.5280   13.6920 C   0  0  0  0  0  0  0  0  0  0  0  0
   28.4290   24.6420   12.6230 C   0  0  0  0  0  0  0  0  0  0  0  0
   28.6900   22.6370   10.9350 C   0  0  0  0  0  0  0  0  0  0  0  0
   27.7560   23.6630   10.6210 O   0  0  0  0  0  0  0  0  0  0  0  0
   25.7950   27.0670   15.8790 C   0  0  0  0  0  0  0  0  0  0  0  0
   25.9990   26.0650   16.6190 O   0  0  0  0  0  0  0  0  0  0  0  0
   24.7530   27.7690   15.7310 O   0  0  0  0  0  1  0  0  0  0  0  0
   26.5797   28.3162   14.4231 H   0  0  0  0  0  0  0  0  0  0  0  0
   29.0047   27.0118   15.2994 H   0  0  0  0  0  0  0  0  0  0  0  0
   29.2246   28.8551   13.9017 H   0  0  0  0  0  0  0  0  0  0  0  0
   28.0240   29.7796   14.8884 H   0  0  0  0  0  0  0  0  0  0  0  0
   30.7184   30.1124   15.0820 H   0  0  0  0  0  0  0  0  0  0  0  0
   29.5393   30.3805   16.4454 H   0  0  0  0  0  0  0  0  0  0  0  0
   31.1801   27.8693   15.9403 H   0  0  0  0  0  0  0  0  0  0  0  0
   31.4509   29.1180   17.2257 H   0  0  0  0  0  0  0  0  0  0  0  0
   30.0730   26.8312   17.6491 H   0  0  0  0  0  0  0  0  0  0  0  0
   29.7291   28.4114   18.4951 H   0  0  0  0  0  0  0  0  0  0  0  0
   27.7767   28.7792   17.3250 H   0  0  0  0  0  0  0  0  0  0  0  0
   27.7438   26.9989   17.4348 H   0  0  0  0  0  0  0  0  0  0  0  0
   25.6002   25.3529   10.8699 H   0  0  0  0  0  0  0  0  0  0  0  0
   25.3165   26.9452   12.7629 H   0  0  0  0  0  0  0  0  0  0  0  0
   29.0330   25.5664   14.4844 H   0  0  0  0  0  0  0  0  0  0  0  0
   29.3161   23.9927   12.5837 H   0  0  0  0  0  0  0  0  0  0  0  0
   28.7766   22.5418   12.0274 H   0  0  0  0  0  0  0  0  0  0  0  0
   28.3436   21.6833   10.5102 H   0  0  0  0  0  0  0  0  0  0  0  0
   29.6720   22.8925   10.5102 H   0  0  0  0  0  0  0  0  0  0  0  0
  2  1  1  0
  3  2  1  0
  4  3  1  0
  5  4  1  0
  6  5  1  0
  7  2  1  0
  7  6  1  0
  9  8  2  0
 10  9  1  0
 11 10  2  0
 11  1  1  0
 12 11  1  0
 13 12  2  0
 13  8  1  0
 15 14  1  0
 15  8  1  0
 16  1  1  0
 17 16  2  0
 18 16  1  0
  1 19  1  6
  2 20  1  0
  3 21  1  0
  3 22  1  0
  4 23  1  0
  4 24  1  0
  5 25  1  0
  5 26  1  0
  6 27  1  0
  6 28  1  0
  7 29  1  0
  7 30  1  0
  9 31  1  0
 10 32  1  0
 12 33  1  0
 13 34  1  0
 14 35  1  0
 14 36  1  0
 14 37  1  0
M  CHG  2   2   1  18  -1
M  END
$$$$
=
     RDKit          3D

 36 38  0  0  0  0  0  0  0  0999 V2000
   14.2030   11.5860    3.9870 O   0  0  0  0  0  0  0  0  0  0  0  0
   14.2650   12.6890    3.4520 C   0  0  0  0  0  0  0  0  0  0  0  0
   13.2060   13.4430    2.9700 N   0  0  0  0  0  0  0  0  0  0  0  0
   11.8320   13.1270    2.9980 C   0  0  0  0  0  0  0  0  0  0  0  0
   11.2440   12.1180    2.2370 C   0  0  0  0  0  0  0  0  0  0  0  0
    9.8670   11.8730    2.3330 C   0  0  0  0  0  0  0  0  0  0  0  0
    9.0500   12.6270    3.1890 C   0  0  0  0  0  0  0  0  0  0  0  0
    9.6520   13.6380    3.9490 C   0  0  0  0  0  0  0  0  0  0  0  0
   11.0260   13.8850    3.8560 C   0  0  0  0  0  0  0  0  0  0  0  0
    7.5610   12.3600    3.2920 C   0  0  0  0  0  0  0  0  0  0  0  0
    7.0670   11.4990    2.4980 O   0  0  0  0  0  0  0  0  0  0  0  0
    6.9160   13.0200    4.1680 O   0  0  0  0  0  1  0  0  0  0  0  0
   15.6050   13.3810    3.2650 C   0  0  0  0  0  0  0  0  0  0  0  0
   15.5790   14.9850    4.1160 S   0  0  0  0  0  0  0  0  0  0  0  0
   17.2850   15.3480    4.1520 C   0  0  0  0  0  0  0  0  0  0  0  0
   18.1890   14.6050    3.5540 N   0  0  0  0  0  0  0  0  0  0  0  0
   19.4650   15.0970    3.7360 N   0  0  0  0  0  0  0  0  0  0  0  0
   19.4920   16.1970    4.4690 C   0  0  0  0  0  0  0  0  0  0  0  0
   17.9260   16.6960    4.9870 S   0  0  0  0  0  0  0  0  0  0  0  0
   20.7150   16.9300    4.8180 C   0  0  0  0  0  0  0  0  0  0  0  0
   21.2160   18.0240    4.1000 C   0  0  0  0  0  0  0  0  0  0  0  0
   22.3910   18.6580    4.5110 C   0  0  0  0  0  0  0  0  0  0  0  0
   23.0400   18.1810    5.6350 C   0  0  0  0  0  0  0  0  0  0  0  0
   22.6000   17.1330    6.3590 N   0  0  0  0  0  0  0  0  0  0  0  0
   21.4550   16.5370    5.9340 C   0  0  0  0  0  0  0  0  0  0  0  0
   13.4533   14.3449    2.5384 H   0  0  0  0  0  0  0  0  0  0  0  0
   11.8626   11.5119    1.5588 H   0  0  0  0  0  0  0  0  0  0  0  0
    9.4181   11.0737    1.7251 H   0  0  0  0  0  0  0  0  0  0  0  0
    9.0362   14.2459    4.6281 H   0  0  0  0  0  0  0  0  0  0  0  0
   11.4778   14.6831    4.4634 H   0  0  0  0  0  0  0  0  0  0  0  0
   16.4040   12.7541    3.6877 H   0  0  0  0  0  0  0  0  0  0  0  0
   15.7916   13.5370    2.1922 H   0  0  0  0  0  0  0  0  0  0  0  0
   20.6818   18.3852    3.2088 H   0  0  0  0  0  0  0  0  0  0  0  0
   22.7910   19.5174    3.9530 H   0  0  0  0  0  0  0  0  0  0  0  0
   23.9645   18.6837    5.9552 H   0  0  0  0  0  0  0  0  0  0  0  0
   21.0831   15.6794    6.5139 H   0  0  0  0  0  0  0  0  0  0  0  0
  2  1  2  0
  3  2  1  0
  4  3  1  0
  5  4  2  0
  6  5  1  0
  7  6  2  0
  8  7  1  0
  9  8  2  0
  9  4  1  0
 10  7  1  0
 11 10  2  0
 12 10  1  0
 13  2  1  0
 14 13  1  0
 15 14  1  0
 16 15  2  0
 17 16  1  0
 18 17  2  0
 19 18  1  0
 19 15  1  0
 20 18  1  0
 21 20  2  0
 22 21  1  0
 23 22  2  0
 24 23  1  0
 25 20  1  0
 25 24  2  0
  3 26  1  0
  5 27  1  0
  6 28  1  0
  8 29  1  0
  9 30  1  0
 13 31  1  0
 13 32  1  0
 21 33  1  0
 22 34  1  0
 23 35  1  0
 25 36  1  0
M  CHG  1  12  -1
M  END
$$$$
=
     RDKit          3D

 48 49  0  0  0  0  0  0  0  0999 V2000
   17.8180   13.3680    3.9740 O   0  0  0  0  0  0  0  0  0  0  0  0
   17.0260   14.1950    3.5290 C   0  0  0  0  0  0  0  0  0  0  0  0
   17.2050   15.5680    3.5370 N   0  0  0  0  0  0  0  0  0  0  0  0
   18.5360   16.0350    3.5560 N   0  0  0  0  0  0  0  0  0  0  0  0
   18.8620   16.9310    4.5570 C   0  0  0  0  0  0  0  0  0  0  0  0
   18.0210   17.4410    5.3040 O   0  0  0  0  0  0  0  0  0  0  0  0
   20.2940   17.3060    4.7040 C   0  0  0  0  0  0  0  0  0  0  0  0
   20.7030   18.4310    3.9660 C   0  0  0  0  0  0  0  0  0  0  0  0
   22.0060   18.9190    4.0710 C   0  0  0  0  0  0  0  0  0  0  0  0
   22.9070   18.3000    4.9290 C   0  0  0  0  0  0  0  0  0  0  0  0
   22.5050   17.1930    5.6790 C   0  0  0  0  0  0  0  0  0  0  0  0
   21.1990   16.6760    5.5750 C   0  0  0  0  0  0  0  0  0  0  0  0
   20.8260   15.5030    6.4240 C   0  0  0  0  0  0  0  0  0  0  0  0
   21.0830   15.6010    7.6650 O   0  0  0  0  0  0  0  0  0  0  0  0
   20.2860   14.5170    5.8420 O   0  0  0  0  0  1  0  0  0  0  0  0
   15.7560   13.7660    2.8360 C   0  0  0  0  0  0  0  0  0  0  0  0
   15.5060   12.2820    3.0870 C   0  0  0  0  0  0  0  0  0  0  0  0
   14.0480   12.0390    3.4110 C   0  0  0  0  0  0  0  0  0  0  0  0
   13.7670   11.2970    4.3500 O   0  0  0  0  0  0  0  0  0  0  0  0
   13.1650   12.7600    2.6260 N   0  0  0  0  0  0  0  0  0  0  0  0
   11.7480   12.8050    2.7530 C   0  0  0  0  0  0  0  0  0  0  0  0
   10.9030   11.9460    2.0320 C   0  0  0  0  0  0  0  0  0  0  0  0
    9.5030   11.9970    2.1560 C   0  0  0  0  0  0  0  0  0  0  0  0
    8.6440   11.0370    1.3900 C   0  0  0  0  0  0  0  0  0  0  0  0
    8.9350   12.9070    3.0430 C   0  0  0  0  0  0  0  0  0  0  0  0
    9.7520   13.7660    3.7720 C   0  0  0  0  0  0  0  0  0  0  0  0
   11.1540   13.7300    3.6380 C   0  0  0  0  0  0  0  0  0  0  0  0
   11.9520   14.6790    4.4890 C   0  0  0  0  0  0  0  0  0  0  0  0
   16.4051   16.2169    3.5294 H   0  0  0  0  0  0  0  0  0  0  0  0
   19.2290   15.7245    2.8601 H   0  0  0  0  0  0  0  0  0  0  0  0
   19.9872   18.9323    3.2980 H   0  0  0  0  0  0  0  0  0  0  0  0
   22.3188   19.7903    3.4769 H   0  0  0  0  0  0  0  0  0  0  0  0
   23.9350   18.6814    5.0171 H   0  0  0  0  0  0  0  0  0  0  0  0
   23.2215   16.7158    6.3638 H   0  0  0  0  0  0  0  0  0  0  0  0
   14.9106   14.3502    3.2285 H   0  0  0  0  0  0  0  0  0  0  0  0
   15.8561   13.9395    1.7544 H   0  0  0  0  0  0  0  0  0  0  0  0
   15.7769   11.7116    2.1863 H   0  0  0  0  0  0  0  0  0  0  0  0
   16.1196   11.9565    3.9399 H   0  0  0  0  0  0  0  0  0  0  0  0
   13.5772   13.3241    1.8692 H   0  0  0  0  0  0  0  0  0  0  0  0
   11.3504   11.2096    1.3483 H   0  0  0  0  0  0  0  0  0  0  0  0
    8.0804   10.4071    2.0940 H   0  0  0  0  0  0  0  0  0  0  0  0
    7.9413   11.5985    0.7569 H   0  0  0  0  0  0  0  0  0  0  0  0
    9.2799   10.4007    0.7569 H   0  0  0  0  0  0  0  0  0  0  0  0
    7.8428   12.9471    3.1675 H   0  0  0  0  0  0  0  0  0  0  0  0
    9.2945   14.4866    4.4659 H   0  0  0  0  0  0  0  0  0  0  0  0
   11.7689   14.4612    5.5516 H   0  0  0  0  0  0  0  0  0  0  0  0
   13.0228   14.5569    4.2690 H   0  0  0  0  0  0  0  0  0  0  0  0
   11.6480   15.7130    4.2690 H   0  0  0  0  0  0  0  0  0  0  0  0
  2  1  2  0
  3  2  1  0
  4  3  1  0
  5  4  1  0
  6  5  2  0
  7  5  1  0
  8  7  2  0
  9  8  1  0
 10  9  2  0
 11 10  1  0
 12  7  1  0
 12 11  2  0
 13 12  1  0
 14 13  2  0
 15 13  1  0
 16  2  1  0
 17 16  1  0
 18 17  1  0
 19 18  2  0
 20 18  1  0
 21 20  1  0
 22 21  2  0
 23 22  1  0
 24 23  1  0
 25 23  2  0
 26 25  1  0
 27 26  2  0
 27 21  1  0
 28 27  1  0
  3 29  1  0
  4 30  1  0
  8 31  1  0
  9 32  1  0
 10 33  1  0
 11 34  1  0
 16 35  1  0
 16 36  1  0
 17 37  1  0
 17 38  1  0
 20 39  1  0
 22 40  1  0
 24 41  1  0
 24 42  1  0
 24 43  1  0
 25 44  1  0
 26 45  1  0
 28 46  1  0
 28 47  1  0
 28 48  1  0
M  CHG  1  15  -1
M  END
$$$$
=
     RDKit          3D

 25 25  0  0  0  0  0  0  0  0999 V2000
   15.9810   14.9490    3.8720 C   0  0  0  0  0  0  0  0  0  0  0  0
   14.8940   15.6570    4.3960 C   0  0  0  0  0  0  0  0  0  0  0  0
   13.6350   15.0590    4.4900 C   0  0  0  0  0  0  0  0  0  0  0  0
   13.4500   13.7490    4.0600 C   0  0  0  0  0  0  0  0  0  0  0  0
   14.5260   13.0350    3.5360 C   0  0  0  0  0  0  0  0  0  0  0  0
   15.8070   13.6140    3.4310 C   0  0  0  0  0  0  0  0  0  0  0  0
   18.1720   15.8810    4.7340 C   0  0  0  0  0  0  0  0  0  0  0  0
   18.0210   15.7810    5.9490 O   0  0  0  0  0  0  0  0  0  0  0  0
   17.2670   15.5140    3.7590 N   0  0  0  0  0  0  0  0  0  0  0  0
   19.4490   16.4560    4.0940 C   0  0  0  0  0  0  0  0  0  0  0  0
   19.7240   17.4300    1.9750 C   0  0  0  0  0  0  0  0  0  0  0  0
   19.5650   16.2180    2.6950 O   0  0  0  0  0  0  0  0  0  0  0  0
   16.9490   12.7910    2.8510 C   0  0  0  0  0  0  0  0  0  0  0  0
   18.0520   12.7830    3.4810 O   0  0  0  0  0  0  0  0  0  0  0  0
   16.7150   12.1600    1.7630 O   0  0  0  0  0  1  0  0  0  0  0  0
   15.0319   16.6937    4.7370 H   0  0  0  0  0  0  0  0  0  0  0  0
   12.7881   15.6252    4.9049 H   0  0  0  0  0  0  0  0  0  0  0  0
   12.4584   13.2786    4.1333 H   0  0  0  0  0  0  0  0  0  0  0  0
   14.3728   11.9996    3.1978 H   0  0  0  0  0  0  0  0  0  0  0  0
   17.5824   15.6798    2.7926 H   0  0  0  0  0  0  0  0  0  0  0  0
   19.4571   17.5434    4.2597 H   0  0  0  0  0  0  0  0  0  0  0  0
   20.2972   15.9429    4.5708 H   0  0  0  0  0  0  0  0  0  0  0  0
   19.8336   18.2651    2.6825 H   0  0  0  0  0  0  0  0  0  0  0  0
   20.6214   17.3655    1.3421 H   0  0  0  0  0  0  0  0  0  0  0  0
   18.8403   17.5991    1.3421 H   0  0  0  0  0  0  0  0  0  0  0  0
  2  1  2  0
  3  2  1  0
  4  3  2  0
  5  4  1  0
  6  5  2  0
  6  1  1  0
  8  7  2  0
  9  1  1  0
  9  7  1  0
 10  7  1  0
 12 11  1  0
 12 10  1  0
 13  6  1  0
 14 13  2  0
 15 13  1  0
  2 16  1  0
  3 17  1  0
  4 18  1  0
  5 19  1  0
  9 20  1  0
 10 21  1  0
 10 22  1  0
 11 23  1  0
 11 24  1  0
 11 25  1  0
M  CHG  1  15  -1
M  END
$$$$
=
     RDKit          3D

 25 25  0  0  0  0  0  0  0  0999 V2000
   19.4090   16.3010    2.6620 O   0  0  0  0  0  0  0  0  0  0  0  0
   19.9070   17.6080    2.9490 C   0  0  0  0  0  0  0  0  0  0  0  0
   21.9690   18.2820    4.2080 C   0  0  0  0  0  0  0  0  0  0  0  0
   20.8880   17.4970    4.0670 C   0  0  0  0  0  0  0  0  0  0  0  0
   24.0660   18.7760    5.2230 O   0  0  0  0  0  1  0  0  0  0  0  0
   22.9860   18.1360    5.3460 C   0  0  0  0  0  0  0  0  0  0  0  0
   22.5870   17.3870    6.2830 O   0  0  0  0  0  0  0  0  0  0  0  0
   19.3800   15.4610    3.8130 C   0  0  0  0  0  0  0  0  0  0  0  0
   18.0280   15.4370    4.4870 C   0  0  0  0  0  0  0  0  0  0  0  0
   16.8900   15.0230    3.7800 C   0  0  0  0  0  0  0  0  0  0  0  0
   15.6350   15.0270    4.3940 C   0  0  0  0  0  0  0  0  0  0  0  0
   15.5050   15.4500    5.7150 C   0  0  0  0  0  0  0  0  0  0  0  0
   16.6260   15.8740    6.4250 C   0  0  0  0  0  0  0  0  0  0  0  0
   17.8810   15.8720    5.8120 C   0  0  0  0  0  0  0  0  0  0  0  0
   20.4025   18.0217    2.0583 H   0  0  0  0  0  0  0  0  0  0  0  0
   19.0805   18.2759    3.2332 H   0  0  0  0  0  0  0  0  0  0  0  0
   22.1340   19.0753    3.4641 H   0  0  0  0  0  0  0  0  0  0  0  0
   20.7148   16.7206    4.8267 H   0  0  0  0  0  0  0  0  0  0  0  0
   19.6382   14.4365    3.5069 H   0  0  0  0  0  0  0  0  0  0  0  0
   20.1033   15.8656    4.5363 H   0  0  0  0  0  0  0  0  0  0  0  0
   16.9860   14.6929    2.7351 H   0  0  0  0  0  0  0  0  0  0  0  0
   14.7483   14.6957    3.8336 H   0  0  0  0  0  0  0  0  0  0  0  0
   14.5166   15.4492    6.1977 H   0  0  0  0  0  0  0  0  0  0  0  0
   16.5229   16.2100    7.4673 H   0  0  0  0  0  0  0  0  0  0  0  0
   18.7623   16.2149    6.3738 H   0  0  0  0  0  0  0  0  0  0  0  0
  2  1  1  0
  4  2  1  0
  4  3  2  0
  6  5  1  0
  6  3  1  0
  7  6  2  0
  8  1  1  0
  9  8  1  0
 10  9  2  0
 11 10  1  0
 12 11  2  0
 13 12  1  0
 14  9  1  0
 14 13  2  0
  2 15  1  0
  2 16  1  0
  3 17  1  0
  4 18  1  0
  8 19  1  0
  8 20  1  0
 10 21  1  0
 11 22  1  0
 12 23  1  0
 13 24  1  0
 14 25  1  0
M  CHG  1   5  -1
M  END
$$$$
=
     RDKit          3D

 27 28  0  0  0  0  0  0  0  0999 V2000
   17.2340   14.8890    3.7120 C   0  0  0  0  0  0  0  0  0  0  0  0
   18.3060   15.7860    4.2510 C   0  0  0  0  0  0  0  0  0  0  0  0
   18.0880   16.9780    4.7700 N   0  0  0  0  0  0  0  0  0  0  0  0
   19.2910   17.5280    5.2140 C   0  0  0  0  0  0  0  0  0  0  0  0
   20.3970   16.7160    5.0320 C   0  0  0  0  0  0  0  0  0  0  0  0
   19.9390   15.2530    4.2750 S   0  0  0  0  0  0  0  0  0  0  0  0
   19.2550   18.8820    5.8260 C   0  0  0  0  0  0  0  0  0  0  0  0
   21.8770   17.0670    5.4550 C   0  0  0  0  0  0  0  0  0  0  0  0
   22.2550   16.6640    6.5980 O   0  0  0  0  0  0  0  0  0  0  0  0
   22.5730   17.7290    4.6250 O   0  0  0  0  0  1  0  0  0  0  0  0
   16.0420   15.1280    4.4650 O   0  0  0  0  0  0  0  0  0  0  0  0
   11.7790   12.1390    2.7320 F   0  0  0  0  0  0  0  0  0  0  0  0
   12.8000   12.8880    3.1710 C   0  0  0  0  0  0  0  0  0  0  0  0
   14.1010   12.5400    2.8330 C   0  0  0  0  0  0  0  0  0  0  0  0
   15.1580   13.3260    3.2920 C   0  0  0  0  0  0  0  0  0  0  0  0
   14.9180   14.4520    4.0870 C   0  0  0  0  0  0  0  0  0  0  0  0
   13.6030   14.7900    4.4190 C   0  0  0  0  0  0  0  0  0  0  0  0
   12.5420   14.0040    3.9580 C   0  0  0  0  0  0  0  0  0  0  0  0
   17.0569   15.1145    2.6500 H   0  0  0  0  0  0  0  0  0  0  0  0
   17.5369   13.8350    3.7979 H   0  0  0  0  0  0  0  0  0  0  0  0
   19.2575   18.7891    6.9221 H   0  0  0  0  0  0  0  0  0  0  0  0
   20.1383   19.4533    5.5044 H   0  0  0  0  0  0  0  0  0  0  0  0
   18.3426   19.4056    5.5044 H   0  0  0  0  0  0  0  0  0  0  0  0
   14.2959   11.6544    2.2103 H   0  0  0  0  0  0  0  0  0  0  0  0
   16.1911   13.0577    3.0261 H   0  0  0  0  0  0  0  0  0  0  0  0
   13.4027   15.6738    5.0426 H   0  0  0  0  0  0  0  0  0  0  0  0
   11.5063   14.2684    4.2176 H   0  0  0  0  0  0  0  0  0  0  0  0
  2  1  1  0
  3  2  2  0
  4  3  1  0
  5  4  2  0
  6  2  1  0
  6  5  1  0
  7  4  1  0
  8  5  1  0
  9  8  2  0
 10  8  1  0
 11  1  1  0
 13 12  1  0
 14 13  2  0
 15 14  1  0
 16 15  2  0
 16 11  1  0
 17 16  1  0
 18 17  2  0
 18 13  1  0
  1 19  1  0
  1 20  1  0
  7 21  1  0
  7 22  1  0
  7 23  1  0
 14 24  1  0
 15 25  1  0
 17 26  1  0
 18 27  1  0
M  CHG  1  10  -1
M  END
$$$$
=
     RDKit          3D

 20 20  0  0  0  0  0  0  0  0999 V2000
   16.4320   15.2020    4.3870 N   0  0  0  0  0  0  0  0  0  0  0  0
   17.4900   14.5130    3.8500 C   0  0  0  0  0  0  0  0  0  0  0  0
   17.1230   13.4590    3.1580 N   0  0  0  0  0  0  0  0  0  0  0  0
   15.7530   13.4570    3.2380 N   0  0  0  0  0  0  0  0  0  0  0  0
   15.3020   14.5500    3.9720 C   0  0  0  0  0  0  0  0  0  0  0  0
   14.1400   14.8630    4.1880 O   0  0  0  0  0  0  0  0  0  0  0  0
   14.9510   12.4940    2.5410 C   0  0  0  0  0  0  0  0  0  0  0  0
   18.9800   14.8700    3.9880 C   0  0  0  0  0  0  0  0  0  0  0  0
   19.5480   14.4870    5.0600 O   0  0  0  0  0  0  0  0  0  0  0  0
   19.5230   15.5090    3.0320 O   0  0  0  0  0  1  0  0  0  0  0  0
   16.7990   16.1750    6.6140 C   0  0  0  0  0  0  0  0  0  0  0  0
   16.4400   16.4270    5.1590 C   0  0  0  0  0  0  0  0  0  0  0  0
   14.4234   11.8604    3.2691 H   0  0  0  0  0  0  0  0  0  0  0  0
   14.2171   13.0162    1.9096 H   0  0  0  0  0  0  0  0  0  0  0  0
   15.5974   11.8667    1.9096 H   0  0  0  0  0  0  0  0  0  0  0  0
   16.0729   16.6847    7.2644 H   0  0  0  0  0  0  0  0  0  0  0  0
   16.7760   15.0938    6.8154 H   0  0  0  0  0  0  0  0  0  0  0  0
   17.8080   16.5641    6.8154 H   0  0  0  0  0  0  0  0  0  0  0  0
   17.1784   17.1169    4.7244 H   0  0  0  0  0  0  0  0  0  0  0  0
   15.4286   16.8583    5.1262 H   0  0  0  0  0  0  0  0  0  0  0  0
  2  1  1  0
  3  2  2  0
  4  3  1  0
  5  4  1  0
  5  1  1  0
  6  5  2  0
  7  4  1  0
  8  2  1  0
  9  8  2  0
 10  8  1  0
 12  1  1  0
 12 11  1  0
  7 13  1  0
  7 14  1  0
  7 15  1  0
 11 16  1  0
 11 17  1  0
 11 18  1  0
 12 19  1  0
 12 20  1  0
M  CHG  1  10  -1
M  END
$$$$
=
     RDKit          3D

 23 23  0  0  0  0  0  0  0  0999 V2000
   14.6770   14.6000    4.4800 C   0  0  0  0  0  0  0  0  0  0  0  0
   15.5400   14.5290    3.3760 C   0  0  0  0  0  0  0  0  0  0  0  0
   16.8170   15.0860    3.4390 C   0  0  0  0  0  0  0  0  0  0  0  0
   17.2290   15.7190    4.6140 C   0  0  0  0  0  0  0  0  0  0  0  0
   16.4000   15.7610    5.7370 C   0  0  0  0  0  0  0  0  0  0  0  0
   15.1250   15.2010    5.6640 C   0  0  0  0  0  0  0  0  0  0  0  0
   18.8420   16.4660    4.6870 S   0  0  0  0  0  6  0  0  0  0  0  0
   19.2910   16.6550    3.3130 O   0  0  0  0  0  0  0  0  0  0  0  0
   18.7390   17.6250    5.5640 O   0  0  0  0  0  0  0  0  0  0  0  0
   19.8140   15.1570    5.4890 C   0  0  0  0  0  0  0  0  0  0  0  0
   21.1200   15.1510    5.0930 F   0  0  0  0  0  0  0  0  0  0  0  0
   19.3310   13.9090    5.2120 F   0  0  0  0  0  0  0  0  0  0  0  0
   19.8250   15.2640    6.8490 F   0  0  0  0  0  0  0  0  0  0  0  0
   13.2940   14.0010    4.4050 C   0  0  0  0  0  0  0  0  0  0  0  0
   12.5690   12.7240    2.5550 O   0  0  0  0  0  1  0  0  0  0  0  0
   13.2810   12.7030    3.5990 C   0  0  0  0  0  0  0  0  0  0  0  0
   13.9530   11.7540    4.0970 O   0  0  0  0  0  0  0  0  0  0  0  0
   15.2069   14.0303    2.4539 H   0  0  0  0  0  0  0  0  0  0  0  0
   17.4924   15.0275    2.5728 H   0  0  0  0  0  0  0  0  0  0  0  0
   16.7488   16.2305    6.6686 H   0  0  0  0  0  0  0  0  0  0  0  0
   14.4651   15.2313    6.5436 H   0  0  0  0  0  0  0  0  0  0  0  0
   12.9415   13.7901    5.4254 H   0  0  0  0  0  0  0  0  0  0  0  0
   12.6353   14.7234    3.9007 H   0  0  0  0  0  0  0  0  0  0  0  0
  2  1  2  0
  3  2  1  0
  4  3  2  0
  5  4  1  0
  6  1  1  0
  6  5  2  0
  7  4  1  0
  8  7  2  0
  9  7  2  0
 10  7  1  0
 11 10  1  0
 12 10  1  0
 13 10  1  0
 14  1  1  0
 16 15  1  0
 16 14  1  0
 17 16  2  0
  2 18  1  0
  3 19  1  0
  5 20  1  0
  6 21  1  0
 14 22  1  0
 14 23  1  0
M  CHG  1  15  -1
M  END
$$$$
=
     RDKit          3D

 23 24  0  0  0  0  0  0  0  0999 V2000
   12.0950   13.1080    3.4080 C   0  0  0  0  0  0  0  0  0  0  0  0
   13.4370   13.7150    3.6890 C   0  0  0  0  0  0  0  0  0  0  0  0
   13.5370   14.9620    4.3180 C   0  0  0  0  0  0  0  0  0  0  0  0
   14.7870   15.5470    4.5530 C   0  0  0  0  0  0  0  0  0  0  0  0
   15.9570   14.8940    4.1640 C   0  0  0  0  0  0  0  0  0  0  0  0
   15.8550   13.6580    3.5090 C   0  0  0  0  0  0  0  0  0  0  0  0
   14.6070   13.0690    3.2700 C   0  0  0  0  0  0  0  0  0  0  0  0
   17.1050   12.9790    3.0700 C   0  0  0  0  0  0  0  0  0  0  0  0
   17.0700   11.9040    2.4760 O   0  0  0  0  0  0  0  0  0  0  0  0
   18.3970   13.6350    3.3890 C   0  0  0  0  0  0  0  0  0  0  0  0
   18.3830   14.8240    4.0110 C   0  0  0  0  0  0  0  0  0  0  0  0
   17.2050   15.4780    4.3470 N   0  0  0  0  0  0  0  0  0  0  0  0
   19.7440   15.5130    4.4080 C   0  0  0  0  0  0  0  0  0  0  0  0
   20.1190   16.4830    3.6940 O   0  0  0  0  0  0  0  0  0  0  0  0
   20.2940   14.9720    5.4180 O   0  0  0  0  0  1  0  0  0  0  0  0
   11.5898   12.8795    4.3580 H   0  0  0  0  0  0  0  0  0  0  0  0
   11.4852   13.8179    2.8299 H   0  0  0  0  0  0  0  0  0  0  0  0
   12.2255   12.1813    2.8299 H   0  0  0  0  0  0  0  0  0  0  0  0
   12.6230   15.4880    4.6310 H   0  0  0  0  0  0  0  0  0  0  0  0
   14.8471   16.5277    5.0475 H   0  0  0  0  0  0  0  0  0  0  0  0
   14.5457   12.0997    2.7536 H   0  0  0  0  0  0  0  0  0  0  0  0
   19.3497   13.1551    3.1204 H   0  0  0  0  0  0  0  0  0  0  0  0
   17.2577   16.4266    4.7447 H   0  0  0  0  0  0  0  0  0  0  0  0
  2  1  1  0
  3  2  2  0
  4  3  1  0
  5  4  2  0
  6  5  1  0
  7  6  2  0
  7  2  1  0
  8  6  1  0
  9  8  2  0
 10  8  1  0
 11 10  2  0
 12  5  1  0
 12 11  1  0
 13 11  1  0
 14 13  2  0
 15 13  1  0
  1 16  1  0
  1 17  1  0
  1 18  1  0
  3 19  1  0
  4 20  1  0
  7 21  1  0
 10 22  1  0
 12 23  1  0
M  CHG  1  15  -1
M  END
$$$$
=
     RDKit          3D

 31 33  0  0  0  0  0  0  0  0999 V2000
   16.6930   15.5670    4.4410 C   0  0  1  0  0  0  0  0  0  0  0  0
   15.6070   15.4850    5.5250 C   0  0  0  0  0  0  0  0  0  0  0  0
   16.7040   15.8970    6.5130 C   0  0  0  0  0  0  0  0  0  0  0  0
   17.7110   15.4630    5.5600 N   0  0  2  0  0  4  0  0  0  0  0  0
   15.6620   14.0370    2.9920 O   0  0  0  0  0  1  0  0  0  0  0  0
   16.7760   14.3390    3.5320 C   0  0  0  0  0  0  0  0  0  0  0  0
   17.8890   13.7610    3.4110 O   0  0  0  0  0  0  0  0  0  0  0  0
   18.8490   16.3840    5.3580 C   0  0  0  0  0  0  0  0  0  0  0  0
   18.7610   17.1610    4.0580 C   0  0  0  0  0  0  0  0  0  0  0  0
   19.8570   18.1060    3.6210 C   0  0  0  0  0  0  0  0  0  0  0  0
   19.6450   16.8190    2.8780 C   0  0  0  0  0  0  0  0  0  0  0  0
   20.2060   15.7010    5.4280 C   0  0  0  0  0  0  0  0  0  0  0  0
   20.5550   14.7880    6.5860 C   0  0  0  0  0  0  0  0  0  0  0  0
   21.3220   16.0620    6.3890 C   0  0  0  0  0  0  0  0  0  0  0  0
   16.6765   16.3770    3.6969 H   0  0  0  0  0  0  0  0  0  0  0  0
   14.7865   16.2093    5.4149 H   0  0  0  0  0  0  0  0  0  0  0  0
   14.9880   14.5877    5.6723 H   0  0  0  0  0  0  0  0  0  0  0  0
   16.7287   16.9740    6.7356 H   0  0  0  0  0  0  0  0  0  0  0  0
   16.7041   15.5110    7.5431 H   0  0  0  0  0  0  0  0  0  0  0  0
   18.2318   14.5953    5.7516 H   0  0  0  0  0  0  0  0  0  0  0  0
   18.7686   17.0851    6.2018 H   0  0  0  0  0  0  0  0  0  0  0  0
   17.6776   17.2506    4.2258 H   0  0  0  0  0  0  0  0  0  0  0  0
   19.5990   19.0637    3.1452 H   0  0  0  0  0  0  0  0  0  0  0  0
   20.7146   18.5827    4.1183 H   0  0  0  0  0  0  0  0  0  0  0  0
   19.2314   16.8346    1.8588 H   0  0  0  0  0  0  0  0  0  0  0  0
   20.2825   15.9645    2.6070 H   0  0  0  0  0  0  0  0  0  0  0  0
   20.1460   15.6323    4.3318 H   0  0  0  0  0  0  0  0  0  0  0  0
   19.8630   14.6896    7.4354 H   0  0  0  0  0  0  0  0  0  0  0  0
   20.8263   13.7263    6.6821 H   0  0  0  0  0  0  0  0  0  0  0  0
   22.3689   16.0264    6.0531 H   0  0  0  0  0  0  0  0  0  0  0  0
   21.5523   16.9343    7.0183 H   0  0  0  0  0  0  0  0  0  0  0  0
  2  1  1  0
  3  2  1  0
  4  1  1  0
  4  3  1  0
  6  5  1  0
  6  1  1  0
  7  6  2  0
  8  4  1  0
  9  8  1  0
 10  9  1  0
 11 10  1  0
 11  9  1  0
 12  8  1  0
 13 12  1  0
 14 12  1  0
 14 13  1  0
  1 15  1  6
  2 16  1  0
  2 17  1  0
  3 18  1  0
  3 19  1  0
  4 20  1  1
  8 21  1  0
  9 22  1  0
 10 23  1  0
 10 24  1  0
 11 25  1  0
 11 26  1  0
 12 27  1  0
 13 28  1  0
 13 29  1  0
 14 30  1  0
 14 31  1  0
M  CHG  2   4   1   5  -1
M  END
$$$$
=
     RDKit          3D

 25 26  0  0  0  0  0  0  0  0999 V2000
   20.4250   18.1070    2.0710 F   0  0  0  0  0  0  0  0  0  0  0  0
   20.0960   17.2380    3.0360 C   0  0  0  0  0  0  0  0  0  0  0  0
   20.8880   17.1400    4.1730 C   0  0  0  0  0  0  0  0  0  0  0  0
   20.5520   16.2340    5.1890 C   0  0  0  0  0  0  0  0  0  0  0  0
   19.4040   15.4360    5.0230 C   0  0  0  0  0  0  0  0  0  0  0  0
   18.6000   15.5260    3.8730 C   0  0  0  0  0  0  0  0  0  0  0  0
   18.9650   16.4440    2.8790 C   0  0  0  0  0  0  0  0  0  0  0  0
   17.4090   14.6810    3.7150 C   0  0  0  0  0  0  0  0  0  0  0  0
   16.1510   15.1730    4.1070 C   0  0  0  0  0  0  0  0  0  0  0  0
   14.9920   14.4100    3.9390 C   0  0  0  0  0  0  0  0  0  0  0  0
   15.0690   13.1400    3.3730 C   0  0  0  0  0  0  0  0  0  0  0  0
   16.3050   12.6270    2.9870 C   0  0  0  0  0  0  0  0  0  0  0  0
   17.4610   13.3880    3.1650 C   0  0  0  0  0  0  0  0  0  0  0  0
   18.6380   12.7950    2.7920 O   0  0  0  0  0  0  0  0  0  0  0  0
   21.4050   16.1180    6.4340 C   0  0  0  0  0  0  0  0  0  0  0  0
   22.4400   16.8510    6.4930 O   0  0  0  0  0  0  0  0  0  0  0  0
   21.0190   15.2950    7.3220 O   0  0  0  0  0  1  0  0  0  0  0  0
   21.7806   17.7745    4.2765 H   0  0  0  0  0  0  0  0  0  0  0  0
   19.1287   14.7230    5.8141 H   0  0  0  0  0  0  0  0  0  0  0  0
   18.3535   16.5371    1.9694 H   0  0  0  0  0  0  0  0  0  0  0  0
   16.0780   16.1756    4.5535 H   0  0  0  0  0  0  0  0  0  0  0  0
   14.0182   14.8131    4.2541 H   0  0  0  0  0  0  0  0  0  0  0  0
   14.1558   12.5434    3.2311 H   0  0  0  0  0  0  0  0  0  0  0  0
   16.3698   11.6230    2.5423 H   0  0  0  0  0  0  0  0  0  0  0  0
   19.4927   13.2841    2.8938 H   0  0  0  0  0  0  0  0  0  0  0  0
  2  1  1  0
  3  2  2  0
  4  3  1  0
  5  4  2  0
  6  5  1  0
  7  6  2  0
  7  2  1  0
  8  6  1  0
  9  8  2  0
 10  9  1  0
 11 10  2  0
 12 11  1  0
 13 12  2  0
 13  8  1  0
 14 13  1  0
 15  4  1  0
 16 15  2  0
 17 15  1  0
  3 18  1  0
  5 19  1  0
  7 20  1  0
  9 21  1  0
 10 22  1  0
 11 23  1  0
 12 24  1  0
 14 25  1  0
M  CHG  1  17  -1
M  END
$$$$
=
     RDKit          3D

 33 34  0  0  0  0  0  0  0  0999 V2000
   14.9910   14.4990    3.9640 C   0  0  0  0  0  0  0  0  0  0  0  0
   15.1550   13.3920    3.2410 C   0  0  0  0  0  0  0  0  0  0  0  0
   16.3910   12.9290    2.9360 N   0  0  0  0  0  0  0  0  0  0  0  0
   17.5620   13.5080    3.3430 C   0  0  0  0  0  0  0  0  0  0  0  0
   18.6050   12.9830    2.9410 O   0  0  0  0  0  0  0  0  0  0  0  0
   17.4510   14.6660    4.1210 N   0  0  0  0  0  0  0  0  0  0  0  0
   16.2020   15.2380    4.4300 C   0  0  0  0  0  0  0  0  0  0  0  0
   16.0350   16.2950    5.0420 O   0  0  0  0  0  0  0  0  0  0  0  0
   18.6660   15.3110    4.5790 C   0  0  0  0  0  0  0  0  0  0  0  0
   19.2840   14.9230    5.7770 C   0  0  0  0  0  0  0  0  0  0  0  0
   20.4570   15.5390    6.2290 C   0  0  0  0  0  0  0  0  0  0  0  0
   21.0570   16.5680    5.4970 C   0  0  0  0  0  0  0  0  0  0  0  0
   20.4560   16.9840    4.2970 C   0  0  0  0  0  0  0  0  0  0  0  0
   19.2760   16.3490    3.8560 C   0  0  0  0  0  0  0  0  0  0  0  0
   21.0450   18.0890    3.4650 C   0  0  0  0  0  0  0  0  0  0  0  0
   22.3100   17.2130    6.0170 C   0  0  0  0  0  0  0  0  0  0  0  0
   13.6330   15.0170    4.3420 C   0  0  0  0  0  0  0  0  0  0  0  0
   12.2940   13.4200    5.4430 O   0  0  0  0  0  1  0  0  0  0  0  0
   12.5640   13.9220    4.3130 C   0  0  0  0  0  0  0  0  0  0  0  0
   12.0260   13.6910    3.1920 O   0  0  0  0  0  0  0  0  0  0  0  0
   14.2703   12.8438    2.8851 H   0  0  0  0  0  0  0  0  0  0  0  0
   16.4538   12.0801    2.3560 H   0  0  0  0  0  0  0  0  0  0  0  0
   18.8364   14.1157    6.3753 H   0  0  0  0  0  0  0  0  0  0  0  0
   20.9133   15.2086    7.1738 H   0  0  0  0  0  0  0  0  0  0  0  0
   18.8173   16.6787    2.9121 H   0  0  0  0  0  0  0  0  0  0  0  0
   21.4586   18.8650    4.1259 H   0  0  0  0  0  0  0  0  0  0  0  0
   21.8462   17.6828    2.8302 H   0  0  0  0  0  0  0  0  0  0  0  0
   20.2611   18.5277    2.8302 H   0  0  0  0  0  0  0  0  0  0  0  0
   22.2966   17.2061    7.1169 H   0  0  0  0  0  0  0  0  0  0  0  0
   23.1865   16.6540    5.6574 H   0  0  0  0  0  0  0  0  0  0  0  0
   22.3644   18.2512    5.6574 H   0  0  0  0  0  0  0  0  0  0  0  0
   13.6841   15.4344    5.3584 H   0  0  0  0  0  0  0  0  0  0  0  0
   13.3489   15.7837    3.6062 H   0  0  0  0  0  0  0  0  0  0  0  0
  2  1  2  0
  3  2  1  0
  4  3  1  0
  5  4  2  0
  6  4  1  0
  7  1  1  0
  7  6  1  0
  8  7  2  0
  9  6  1  0
 10  9  2  0
 11 10  1  0
 12 11  2  0
 13 12  1  0
 14  9  1  0
 14 13  2  0
 15 13  1  0
 16 12  1  0
 17  1  1  0
 19 18  1  0
 19 17  1  0
 20 19  2  0
  2 21  1  0
  3 22  1  0
 10 23  1  0
 11 24  1  0
 14 25  1  0
 15 26  1  0
 15 27  1  0
 15 28  1  0
 16 29  1  0
 16 30  1  0
 16 31  1  0
 17 32  1  0
 17 33  1  0
M  CHG  1  18  -1
M  END
$$$$
=
     RDKit          3D

 86 85  0  0  0  0  0  0  0  0999 V2000
   12.5340   12.9690    4.2480 N   0  0  0  0  0  4  0  0  0  0  0  0
   13.6710   13.7960    3.9390 C   0  0  0  0  0  0  0  0  0  0  0  0
   14.5710   13.1450    3.4340 O   0  0  0  0  0  0  0  0  0  0  0  0
   13.6940   15.2710    4.2490 C   0  0  0  0  0  0  0  0  0  0  0  0
   15.1000   15.8030    4.5340 C   0  0  0  0  0  0  0  0  0  0  0  0
   15.6870   15.2330    5.8290 C   0  0  0  0  0  0  0  0  0  0  0  0
   16.6700   16.1810    6.5190 C   0  0  0  0  0  0  0  0  0  0  0  0
   17.2950   17.2040    5.5670 C   0  0  0  0  0  0  0  0  0  0  0  0
   18.2270   18.1610    6.3170 C   0  0  0  0  0  0  0  0  0  0  0  0
   19.0700   18.9890    5.3440 C   0  0  0  0  0  0  0  0  0  0  0  0
   19.6450   18.1730    4.1800 C   0  0  0  0  0  0  0  0  0  0  0  0
   21.1640   17.9720    4.2250 C   0  0  0  0  0  0  0  0  0  0  0  0
   21.7400   17.4130    5.5250 C   0  0  0  0  0  0  0  0  0  0  0  0
   21.7850   15.8840    5.6280 C   0  0  0  0  0  0  0  0  0  0  0  0
   20.8000   15.2540    6.6160 C   0  0  0  0  0  0  0  0  0  0  0  0
   19.5940   14.5990    5.9410 C   0  0  0  0  0  0  0  0  0  0  0  0
   18.5110   14.0230    3.7390 C   0  0  0  0  0  0  0  0  0  0  0  0
   19.7350   14.6160    4.4190 C   0  0  0  0  0  0  0  0  0  0  0  0
   11.4470   12.9850    3.2590 C   0  0  0  0  0  0  0  0  0  0  0  0
   11.4980   11.7680    2.3290 C   0  0  0  0  0  0  0  0  0  0  0  0
   10.1950   11.2760    1.6930 C   0  0  0  0  0  0  0  0  0  0  0  0
    9.1810   12.3050    1.1640 C   0  0  0  0  0  0  0  0  0  0  0  0
    7.9400   12.6730    1.9900 C   0  0  2  0  0  0  0  0  0  0  0  0
    7.8040   11.8260    3.1950 N   0  0  0  0  0  0  0  0  0  0  0  0
    7.5990   12.3220    4.4460 C   0  0  0  0  0  0  0  0  0  0  0  0
    7.7900   13.4750    4.7940 O   0  0  0  0  0  0  0  0  0  0  0  0
    7.1430   11.3200    5.2320 O   0  0  0  0  0  0  0  0  0  0  0  0
    5.7240   11.0260    5.3090 C   0  0  0  0  0  0  0  0  0  0  0  0
    4.9310   12.2380    5.8100 C   0  0  0  0  0  0  0  0  0  0  0  0
    5.1890   10.5030    3.9720 C   0  0  0  0  0  0  0  0  0  0  0  0
    5.6160    9.9040    6.3540 C   0  0  0  0  0  0  0  0  0  0  0  0
    6.5970   12.6990    1.2040 C   0  0  0  0  0  0  0  0  0  0  0  0
    6.2280   11.5790    0.7450 O   0  0  0  0  0  0  0  0  0  0  0  0
    6.1340   13.8320    0.8630 O   0  0  0  0  0  1  0  0  0  0  0  0
   12.8645   11.9978    4.3393 H   0  0  0  0  0  0  0  0  0  0  0  0
   12.1319   13.3564    5.1135 H   0  0  0  0  0  0  0  0  0  0  0  0
   13.2815   15.8162    3.3873 H   0  0  0  0  0  0  0  0  0  0  0  0
   13.0949   15.4242    5.1587 H   0  0  0  0  0  0  0  0  0  0  0  0
   15.7583   15.5285    3.6966 H   0  0  0  0  0  0  0  0  0  0  0  0
   15.0293   16.8947    4.6491 H   0  0  0  0  0  0  0  0  0  0  0  0
   14.8603   15.0219    6.5233 H   0  0  0  0  0  0  0  0  0  0  0  0
   16.2461   14.3246    5.5601 H   0  0  0  0  0  0  0  0  0  0  0  0
   16.1337   16.7237    7.3114 H   0  0  0  0  0  0  0  0  0  0  0  0
   17.4893   15.5657    6.9192 H   0  0  0  0  0  0  0  0  0  0  0  0
   17.8719   16.6715    4.7965 H   0  0  0  0  0  0  0  0  0  0  0  0
   16.4867   17.7926    5.1085 H   0  0  0  0  0  0  0  0  0  0  0  0
   17.6217   18.8404    6.9351 H   0  0  0  0  0  0  0  0  0  0  0  0
   18.9053   17.5653    6.9455 H   0  0  0  0  0  0  0  0  0  0  0  0
   18.4377   19.7879    4.9294 H   0  0  0  0  0  0  0  0  0  0  0  0
   19.9243   19.3837    5.9135 H   0  0  0  0  0  0  0  0  0  0  0  0
   19.1682   17.1818    4.1884 H   0  0  0  0  0  0  0  0  0  0  0  0
   19.4354   18.7474    3.2656 H   0  0  0  0  0  0  0  0  0  0  0  0
   21.4334   17.2785    3.4148 H   0  0  0  0  0  0  0  0  0  0  0  0
   21.5938   18.9797    4.1260 H   0  0  0  0  0  0  0  0  0  0  0  0
   22.7685   17.7893    5.6285 H   0  0  0  0  0  0  0  0  0  0  0  0
   21.0606   17.7477    6.3227 H   0  0  0  0  0  0  0  0  0  0  0  0
   21.5725   15.4721    4.6304 H   0  0  0  0  0  0  0  0  0  0  0  0
   22.7877   15.6394    6.0085 H   0  0  0  0  0  0  0  0  0  0  0  0
   21.3326   14.4871    7.1975 H   0  0  0  0  0  0  0  0  0  0  0  0
   20.4144   16.0656    7.2505 H   0  0  0  0  0  0  0  0  0  0  0  0
   19.5144   13.5563    6.2823 H   0  0  0  0  0  0  0  0  0  0  0  0
   18.6919   15.1664    6.2134 H   0  0  0  0  0  0  0  0  0  0  0  0
   17.7985   13.6778    4.5026 H   0  0  0  0  0  0  0  0  0  0  0  0
   18.0329   14.7894    3.1112 H   0  0  0  0  0  0  0  0  0  0  0  0
   18.8161   13.1728    3.1112 H   0  0  0  0  0  0  0  0  0  0  0  0
   20.6209   14.0288    4.1356 H   0  0  0  0  0  0  0  0  0  0  0  0
   19.8377   15.6618    4.0937 H   0  0  0  0  0  0  0  0  0  0  0  0
   10.4838   12.9857    3.7902 H   0  0  0  0  0  0  0  0  0  0  0  0
   11.5625   13.8885    2.6423 H   0  0  0  0  0  0  0  0  0  0  0  0
   12.1861   12.0164    1.5075 H   0  0  0  0  0  0  0  0  0  0  0  0
   11.8043   10.9410    2.9864 H   0  0  0  0  0  0  0  0  0  0  0  0
   10.4742   10.6347    0.8440 H   0  0  0  0  0  0  0  0  0  0  0  0
    9.6647   10.7916    2.5261 H   0  0  0  0  0  0  0  0  0  0  0  0
    9.7376   13.2392    0.9984 H   0  0  0  0  0  0  0  0  0  0  0  0
    8.7523   11.8003    0.2856 H   0  0  0  0  0  0  0  0  0  0  0  0
    8.1319   13.7141    2.2888 H   0  0  0  0  0  0  0  0  0  0  0  0
    7.8680   10.8043    3.0812 H   0  0  0  0  0  0  0  0  0  0  0  0
    4.9269   12.2443    6.9100 H   0  0  0  0  0  0  0  0  0  0  0  0
    5.4000   13.1616    5.4398 H   0  0  0  0  0  0  0  0  0  0  0  0
    3.8969   12.1781    5.4398 H   0  0  0  0  0  0  0  0  0  0  0  0
    4.4138    9.7452    4.1585 H   0  0  0  0  0  0  0  0  0  0  0  0
    4.7567   11.3364    3.3988 H   0  0  0  0  0  0  0  0  0  0  0  0
    6.0124   10.0519    3.3988 H   0  0  0  0  0  0  0  0  0  0  0  0
    5.6578   10.3382    7.3638 H   0  0  0  0  0  0  0  0  0  0  0  0
    4.6624    9.3715    6.2230 H   0  0  0  0  0  0  0  0  0  0  0  0
    6.4505    9.1994    6.2230 H   0  0  0  0  0  0  0  0  0  0  0  0
  2  1  1  0
  3  2  2  0
  4  2  1  0
  5  4  1  0
  6  5  1  0
  7  6  1  0
  8  7  1  0
  9  8  1  0
 10  9  1  0
 11 10  1  0
 12 11  1  0
 13 12  1  0
 14 13  1  0
 15 14  1  0
 16 15  1  0
 18 17  1  0
 18 16  1  0
 19  1  1  0
 20 19  1  0
 21 20  1  0
 22 21  1  0
 23 22  1  0
 24 23  1  0
 25 24  1  0
 26 25  2  0
 27 25  1  0
 28 27  1  0
 29 28  1  0
 30 28  1  0
 31 28  1  0
 32 23  1  0
 33 32  2  0
 34 32  1  0
  1 35  1  0
  1 36  1  0
  4 37  1  0
  4 38  1  0
  5 39  1  0
  5 40  1  0
  6 41  1  0
  6 42  1  0
  7 43  1  0
  7 44  1  0
  8 45  1  0
  8 46  1  0
  9 47  1  0
  9 48  1  0
 10 49  1  0
 10 50  1  0
 11 51  1  0
 11 52  1  0
 12 53  1  0
 12 54  1  0
 13 55  1  0
 13 56  1  0
 14 57  1  0
 14 58  1  0
 15 59  1  0
 15 60  1  0
 16 61  1  0
 16 62  1  0
 17 63  1  0
 17 64  1  0
 17 65  1  0
 18 66  1  0
 18 67  1  0
 19 68  1  0
 19 69  1  0
 20 70  1  0
 20 71  1  0
 21 72  1  0
 21 73  1  0
 22 74  1  0
 22 75  1  0
 23 76  1  1
 24 77  1  0
 29 78  1  0
 29 79  1  0
 29 80  1  0
 30 81  1  0
 30 82  1  0
 30 83  1  0
 31 84  1  0
 31 85  1  0
 31 86  1  0
M  CHG  2   1   1  34  -1
M  END
$$$$
=
     RDKit          3D

 29 29  0  0  0  0  0  0  0  0999 V2000
   19.1590   16.4440    5.1500 N   0  0  0  0  0  0  0  0  0  0  0  0
   18.7390   15.7200    3.7320 S   0  0  0  0  0  6  0  0  0  0  0  0
   19.5210   14.5130    3.5650 O   0  0  0  0  0  0  0  0  0  0  0  0
   18.6920   16.7290    2.6960 O   0  0  0  0  0  0  0  0  0  0  0  0
   17.0550   15.2380    4.0520 C   0  0  0  0  0  0  0  0  0  0  0  0
   16.4610   14.2640    3.2390 C   0  0  0  0  0  0  0  0  0  0  0  0
   15.1470   13.8670    3.4910 C   0  0  0  0  0  0  0  0  0  0  0  0
   14.4490   14.4390    4.5520 C   0  0  0  0  0  0  0  0  0  0  0  0
   15.0390   15.4010    5.3690 C   0  0  0  0  0  0  0  0  0  0  0  0
   16.3530   15.8030    5.1230 C   0  0  0  0  0  0  0  0  0  0  0  0
   13.1900   14.0540    4.7960 F   0  0  0  0  0  0  0  0  0  0  0  0
   19.6350   17.8260    5.2320 C   0  0  0  0  0  0  0  0  0  0  0  0
   21.1630   17.9190    5.2070 C   0  0  2  0  0  0  0  0  0  0  0  0
   21.7390   18.2170    3.8300 C   0  0  0  0  0  0  0  0  0  0  0  0
   21.7080   16.3720    6.9740 O   0  0  0  0  0  1  0  0  0  0  0  0
   21.7600   16.5720    5.7270 C   0  0  0  0  0  0  0  0  0  0  0  0
   22.2340   15.8480    4.7970 O   0  0  0  0  0  0  0  0  0  0  0  0
   21.5810   18.9940    6.0950 O   0  0  0  0  0  0  0  0  0  0  0  0
   18.3238   16.3960    5.7508 H   0  0  0  0  0  0  0  0  0  0  0  0
   17.0259   13.8156    2.4084 H   0  0  0  0  0  0  0  0  0  0  0  0
   14.6661   13.1080    2.8564 H   0  0  0  0  0  0  0  0  0  0  0  0
   14.4727   15.8412    6.2030 H   0  0  0  0  0  0  0  0  0  0  0  0
   16.8323   16.5568    5.7649 H   0  0  0  0  0  0  0  0  0  0  0  0
   19.2327   18.3896    4.3773 H   0  0  0  0  0  0  0  0  0  0  0  0
   19.2890   18.2439    6.1889 H   0  0  0  0  0  0  0  0  0  0  0  0
   22.7111   18.7199    3.9402 H   0  0  0  0  0  0  0  0  0  0  0  0
   21.8738   17.2755    3.2773 H   0  0  0  0  0  0  0  0  0  0  0  0
   21.0484   18.8709    3.2773 H   0  0  0  0  0  0  0  0  0  0  0  0
   21.4694   18.7070    7.0359 H   0  0  0  0  0  0  0  0  0  0  0  0
  2  1  1  0
  3  2  2  0
  4  2  2  0
  5  2  1  0
  6  5  2  0
  7  6  1  0
  8  7  2  0
  9  8  1  0
 10  9  2  0
 10  5  1  0
 11  8  1  0
 12  1  1  0
 13 12  1  0
 14 13  1  0
 16 13  1  0
 16 15  1  0
 17 16  2  0
 13 18  1  1
  1 19  1  0
  6 20  1  0
  7 21  1  0
  9 22  1  0
 10 23  1  0
 12 24  1  0
 12 25  1  0
 14 26  1  0
 14 27  1  0
 14 28  1  0
 18 29  1  0
M  CHG  1  15  -1
M  END
$$$$
=
     RDKit          3D

 26 26  0  0  0  0  0  0  0  0999 V2000
   18.5710   16.6140    4.6160 C   0  0  0  0  0  0  0  0  0  0  0  0
   17.5100   16.9150    5.4700 C   0  0  0  0  0  0  0  0  0  0  0  0
   16.3150   16.1870    5.4010 C   0  0  0  0  0  0  0  0  0  0  0  0
   16.1890   15.1530    4.4690 C   0  0  0  0  0  0  0  0  0  0  0  0
   17.2460   14.8400    3.6080 C   0  0  0  0  0  0  0  0  0  0  0  0
   18.4310   15.5740    3.6910 C   0  0  0  0  0  0  0  0  0  0  0  0
   14.9370   14.3920    4.3880 N   0  0  0  0  0  4  0  0  0  0  0  0
   14.8890   13.4280    3.6100 O   0  0  0  0  0  0  0  0  0  0  0  0
   13.9950   14.7470    5.1140 O   0  0  0  0  0  1  0  0  0  0  0  0
   19.7850   17.2380    4.5770 O   0  0  0  0  0  0  0  0  0  0  0  0
   20.5720   17.3120    5.7890 C   0  0  1  0  0  0  0  0  0  0  0  0
   21.2610   15.9490    6.0930 C   0  0  0  0  0  0  0  0  0  0  0  0
   21.1700   15.5780    7.3030 O   0  0  0  0  0  0  0  0  0  0  0  0
   21.8500   15.3770    5.1310 O   0  0  0  0  0  1  0  0  0  0  0  0
   21.9050   18.6390    4.0680 C   0  0  0  0  0  0  0  0  0  0  0  0
   21.6350   18.3900    5.5450 C   0  0  0  0  0  0  0  0  0  0  0  0
   17.6122   17.7293    6.2024 H   0  0  0  0  0  0  0  0  0  0  0  0
   15.4808   16.4277    6.0764 H   0  0  0  0  0  0  0  0  0  0  0  0
   17.1450   14.0261    2.8749 H   0  0  0  0  0  0  0  0  0  0  0  0
   19.2671   15.3307    3.0188 H   0  0  0  0  0  0  0  0  0  0  0  0
   19.9345   17.5527    6.6525 H   0  0  0  0  0  0  0  0  0  0  0  0
   22.7099   19.3813    3.9624 H   0  0  0  0  0  0  0  0  0  0  0  0
   22.2090   17.6976    3.5870 H   0  0  0  0  0  0  0  0  0  0  0  0
   20.9912   19.0181    3.5870 H   0  0  0  0  0  0  0  0  0  0  0  0
   21.2914   19.3300    6.0014 H   0  0  0  0  0  0  0  0  0  0  0  0
   22.5734   18.0328    5.9942 H   0  0  0  0  0  0  0  0  0  0  0  0
  2  1  2  0
  3  2  1  0
  4  3  2  0
  5  4  1  0
  6  5  2  0
  6  1  1  0
  7  4  1  0
  8  7  2  0
  9  7  1  0
 10  1  1  0
 11 10  1  0
 12 11  1  0
 13 12  2  0
 14 12  1  0
 16 11  1  0
 16 15  1  0
  2 17  1  0
  3 18  1  0
  5 19  1  0
  6 20  1  0
 11 21  1  1
 15 22  1  0
 15 23  1  0
 15 24  1  0
 16 25  1  0
 16 26  1  0
M  CHG  3   7   1   9  -1  14  -1
M  END
$$$$
=
     RDKit          3D

 49 51  0  0  0  0  0  0  0  0999 V2000
   14.0710   13.7380    3.8200 C   0  0  0  0  0  0  0  0  0  0  0  0
   14.4710   14.8130    4.6270 C   0  0  0  0  0  0  0  0  0  0  0  0
   15.8140   15.1820    4.7150 C   0  0  0  0  0  0  0  0  0  0  0  0
   16.7700   14.4550    4.0040 C   0  0  0  0  0  0  0  0  0  0  0  0
   16.3830   13.4110    3.1600 C   0  0  0  0  0  0  0  0  0  0  0  0
   15.0340   13.0520    3.0760 C   0  0  0  0  0  0  0  0  0  0  0  0
   11.7310   15.3690    4.6020 O   0  0  0  0  0  0  0  0  0  0  0  0
   11.6350   14.2180    4.1730 C   0  0  0  0  0  0  0  0  0  0  0  0
   12.7010   13.4180    3.8300 N   0  0  0  0  0  0  0  0  0  0  0  0
   10.2510   13.6280    4.0660 C   0  0  0  0  0  0  0  0  0  0  0  0
    9.8840   13.2260    2.7610 C   0  0  0  0  0  0  0  0  0  0  0  0
    8.6580   12.6100    2.4990 C   0  0  0  0  0  0  0  0  0  0  0  0
    7.7750   12.3680    3.5410 C   0  0  0  0  0  0  0  0  0  0  0  0
    8.1190   12.7500    4.8370 C   0  0  0  0  0  0  0  0  0  0  0  0
    9.3480   13.3890    5.1210 C   0  0  0  0  0  0  0  0  0  0  0  0
    9.6010   13.7600    6.5480 C   0  0  0  0  0  0  0  0  0  0  0  0
   10.6520   13.3050    7.0900 O   0  0  0  0  0  0  0  0  0  0  0  0
    8.7140   14.4800    7.1070 O   0  0  0  0  0  1  0  0  0  0  0  0
   18.4910   14.8700    4.1610 S   0  0  0  0  0  6  0  0  0  0  0  0
   19.2160   14.1670    3.1210 O   0  0  0  0  0  0  0  0  0  0  0  0
   18.8630   14.7080    5.5520 O   0  0  0  0  0  0  0  0  0  0  0  0
   18.5210   16.5360    3.7950 N   0  0  0  0  0  0  0  0  0  0  0  0
   19.2060   16.9090    2.5380 C   0  0  0  0  0  0  0  0  0  0  0  0
   18.8650   17.4300    4.9310 C   0  0  0  0  0  0  0  0  0  0  0  0
   20.3500   17.7070    5.0410 C   0  0  0  0  0  0  0  0  0  0  0  0
   20.9620   18.6650    4.2200 C   0  0  0  0  0  0  0  0  0  0  0  0
   22.3330   18.9060    4.3190 C   0  0  0  0  0  0  0  0  0  0  0  0
   23.1050   18.1910    5.2320 C   0  0  0  0  0  0  0  0  0  0  0  0
   22.5090   17.2320    6.0490 C   0  0  0  0  0  0  0  0  0  0  0  0
   21.1390   16.9890    5.9520 C   0  0  0  0  0  0  0  0  0  0  0  0
   13.7159   15.3729    5.1983 H   0  0  0  0  0  0  0  0  0  0  0  0
   16.1159   16.0367    5.3381 H   0  0  0  0  0  0  0  0  0  0  0  0
   17.1359   12.8739    2.5644 H   0  0  0  0  0  0  0  0  0  0  0  0
   14.7291   12.2237    2.4195 H   0  0  0  0  0  0  0  0  0  0  0  0
   12.4645   12.4576    3.5425 H   0  0  0  0  0  0  0  0  0  0  0  0
   10.5826   13.4031    1.9300 H   0  0  0  0  0  0  0  0  0  0  0  0
    8.3942   12.3183    1.4717 H   0  0  0  0  0  0  0  0  0  0  0  0
    6.8097   11.8779    3.3461 H   0  0  0  0  0  0  0  0  0  0  0  0
    7.4166   12.5492    5.6594 H   0  0  0  0  0  0  0  0  0  0  0  0
   20.1497   17.4229    2.7732 H   0  0  0  0  0  0  0  0  0  0  0  0
   19.4183   16.0020    1.9530 H   0  0  0  0  0  0  0  0  0  0  0  0
   18.5593   17.5795    1.9530 H   0  0  0  0  0  0  0  0  0  0  0  0
   18.3396   18.3868    4.7950 H   0  0  0  0  0  0  0  0  0  0  0  0
   18.5575   16.9188    5.8552 H   0  0  0  0  0  0  0  0  0  0  0  0
   20.3583   19.2295    3.4941 H   0  0  0  0  0  0  0  0  0  0  0  0
   22.8052   19.6622    3.6747 H   0  0  0  0  0  0  0  0  0  0  0  0
   24.1854   18.3834    5.3081 H   0  0  0  0  0  0  0  0  0  0  0  0
   23.1186   16.6672    6.7697 H   0  0  0  0  0  0  0  0  0  0  0  0
   20.6733   16.2279    6.5953 H   0  0  0  0  0  0  0  0  0  0  0  0
  2  1  2  0
  3  2  1  0
  4  3  2  0
  5  4  1  0
  6  1  1  0
  6  5  2  0
  8  7  2  0
  9  8  1  0
  9  1  1  0
 10  8  1  0
 11 10  2  0
 12 11  1  0
 13 12  2  0
 14 13  1  0
 15 14  2  0
 15 10  1  0
 16 15  1  0
 17 16  2  0
 18 16  1  0
 19  4  1  0
 20 19  2  0
 21 19  2  0
 22 19  1  0
 23 22  1  0
 24 22  1  0
 25 24  1  0
 26 25  2  0
 27 26  1  0
 28 27  2  0
 29 28  1  0
 30 25  1  0
 30 29  2  0
  2 31  1  0
  3 32  1  0
  5 33  1  0
  6 34  1  0
  9 35  1  0
 11 36  1  0
 12 37  1  0
 13 38  1  0
 14 39  1  0
 23 40  1  0
 23 41  1  0
 23 42  1  0
 24 43  1  0
 24 44  1  0
 26 45  1  0
 27 46  1  0
 28 47  1  0
 29 48  1  0
 30 49  1  0
M  CHG  1  18  -1
M  END
$$$$
=
     RDKit          3D

 24 25  0  0  0  0  0  0  0  0999 V2000
   13.2750   13.8650    4.1460 C   0  0  0  0  0  0  0  0  0  0  0  0
   13.5900   12.8320    3.2550 C   0  0  0  0  0  0  0  0  0  0  0  0
   14.8790   12.7060    2.7450 C   0  0  0  0  0  0  0  0  0  0  0  0
   15.8720   13.6150    3.1210 C   0  0  0  0  0  0  0  0  0  0  0  0
   15.6090   14.6720    4.0110 C   0  0  0  0  0  0  0  0  0  0  0  0
   14.2950   14.7680    4.5070 C   0  0  0  0  0  0  0  0  0  0  0  0
   11.0430   14.6890    4.0280 O   0  0  0  0  0  1  0  0  0  0  0  0
   11.8750   14.0120    4.7110 C   0  0  0  0  0  0  0  0  0  0  0  0
   11.6380   13.4490    5.8270 O   0  0  0  0  0  0  0  0  0  0  0  0
   16.7210   15.6330    4.3940 C   0  0  1  0  0  0  0  0  0  0  0  0
   16.5520   16.6370    5.5120 C   0  0  0  0  0  0  0  0  0  0  0  0
   17.4660   15.4490    5.7010 C   0  0  2  0  0  0  0  0  0  0  0  0
   18.9370   15.5990    5.7630 C   0  0  0  0  0  0  0  0  0  0  0  0
   19.2850   16.9060    5.7860 F   0  0  0  0  0  0  0  0  0  0  0  0
   19.5510   15.0340    4.6950 F   0  0  0  0  0  0  0  0  0  0  0  0
   19.4400   15.0190    6.8770 F   0  0  0  0  0  0  0  0  0  0  0  0
   12.8123   12.1140    2.9555 H   0  0  0  0  0  0  0  0  0  0  0  0
   15.1163   11.8907    2.0457 H   0  0  0  0  0  0  0  0  0  0  0  0
   16.8859   13.5007    2.7100 H   0  0  0  0  0  0  0  0  0  0  0  0
   14.0542   15.5825    5.2060 H   0  0  0  0  0  0  0  0  0  0  0  0
   16.9983   15.7040    3.3319 H   0  0  0  0  0  0  0  0  0  0  0  0
   16.9768   17.6468    5.4126 H   0  0  0  0  0  0  0  0  0  0  0  0
   15.6933   17.0514    6.0606 H   0  0  0  0  0  0  0  0  0  0  0  0
   17.5474   14.6485    6.4511 H   0  0  0  0  0  0  0  0  0  0  0  0
  2  1  2  0
  3  2  1  0
  4  3  2  0
  5  4  1  0
  6  5  2  0
  6  1  1  0
  8  7  1  0
  8  1  1  0
  9  8  2  0
 10  5  1  0
 11 10  1  0
 12 10  1  0
 12 11  1  0
 13 12  1  0
 14 13  1  0
 15 13  1  0
 16 13  1  0
  2 17  1  0
  3 18  1  0
  4 19  1  0
  6 20  1  0
 10 21  1  6
 11 22  1  0
 11 23  1  0
 12 24  1  1
M  CHG  1   7  -1
M  END
$$$$
=
     RDKit          3D

 29 30  0  0  0  0  0  0  0  0999 V2000
   16.2680   13.9040    3.5190 C   0  0  0  0  0  0  0  0  0  0  0  0
   14.9470   14.0610    3.9730 C   0  0  0  0  0  0  0  0  0  0  0  0
   14.5820   15.1780    4.7090 C   0  0  0  0  0  0  0  0  0  0  0  0
   15.5600   16.1120    4.9800 C   0  0  0  0  0  0  0  0  0  0  0  0
   16.8440   16.0020    4.5790 N   0  0  0  0  0  0  0  0  0  0  0  0
   17.1860   14.9000    3.8440 C   0  0  0  0  0  0  0  0  0  0  0  0
   17.5680   11.9770    3.1680 O   0  0  0  0  0  1  0  0  0  0  0  0
   16.6080   12.6850    2.7240 C   0  0  0  0  0  0  0  0  0  0  0  0
   15.8880   12.4120    1.7140 O   0  0  0  0  0  0  0  0  0  0  0  0
   18.9260   14.7930    3.4620 S   0  0  0  0  0  0  0  0  0  0  0  0
   19.4760   16.4280    4.0050 C   0  0  0  0  0  0  0  0  0  0  0  0
   20.5200   16.4480    5.0670 C   0  0  0  0  0  0  0  0  0  0  0  0
   21.6320   17.3370    5.1580 C   0  0  0  0  0  0  0  0  0  0  0  0
   22.0390   18.3990    4.2100 C   0  0  0  0  0  0  0  0  0  0  0  0
   22.3420   17.1340    6.2740 N   0  0  0  0  0  0  0  0  0  0  0  0
   21.7270   16.0780    6.9170 O   0  0  0  0  0  0  0  0  0  0  0  0
   20.6450   15.6700    6.2000 C   0  0  0  0  0  0  0  0  0  0  0  0
   19.8940   14.5380    6.7770 C   0  0  0  0  0  0  0  0  0  0  0  0
   14.1962   13.2909    3.7424 H   0  0  0  0  0  0  0  0  0  0  0  0
   13.5498   15.3143    5.0639 H   0  0  0  0  0  0  0  0  0  0  0  0
   15.2756   17.0027    5.5595 H   0  0  0  0  0  0  0  0  0  0  0  0
   19.8785   16.9558    3.1278 H   0  0  0  0  0  0  0  0  0  0  0  0
   18.5908   16.9047    4.4513 H   0  0  0  0  0  0  0  0  0  0  0  0
   22.3774   19.2820    4.7719 H   0  0  0  0  0  0  0  0  0  0  0  0
   22.8596   18.0306    3.5769 H   0  0  0  0  0  0  0  0  0  0  0  0
   21.1823   18.6734    3.5769 H   0  0  0  0  0  0  0  0  0  0  0  0
   19.9316   14.5946    7.8749 H   0  0  0  0  0  0  0  0  0  0  0  0
   18.8469   14.5844    6.4431 H   0  0  0  0  0  0  0  0  0  0  0  0
   20.3438   13.5913    6.4431 H   0  0  0  0  0  0  0  0  0  0  0  0
  2  1  2  0
  3  2  1  0
  4  3  2  0
  5  4  1  0
  6  1  1  0
  6  5  2  0
  8  1  1  0
  8  7  1  0
  9  8  2  0
 10  6  1  0
 11 10  1  0
 12 11  1  0
 13 12  1  0
 14 13  1  0
 15 13  2  0
 16 15  1  0
 17 16  1  0
 17 12  2  0
 18 17  1  0
  2 19  1  0
  3 20  1  0
  4 21  1  0
 11 22  1  0
 11 23  1  0
 14 24  1  0
 14 25  1  0
 14 26  1  0
 18 27  1  0
 18 28  1  0
 18 29  1  0
M  CHG  1   7  -1
M  END
$$$$
=
     RDKit          3D

 32 33  0  0  0  0  0  0  0  0999 V2000
   18.5940   16.8300    4.9820 C   0  0  2  0  0  0  0  0  0  0  0  0
   18.8900   16.1980    3.2950 S   0  0  0  0  0  4  0  0  0  0  0  0
   19.3280   14.7680    3.3350 O   0  0  0  0  0  0  0  0  0  0  0  0
   20.3780   17.2180    3.0770 C   0  0  0  0  0  0  0  0  0  0  0  0
   20.3250   18.3490    4.0980 C   0  0  1  0  0  0  0  0  0  0  0  0
   19.7340   17.7640    5.3820 C   0  0  2  0  0  0  0  0  0  0  0  0
   20.9110   17.2650    6.0490 N   0  0  0  0  0  0  0  0  0  0  0  0
   22.0210   17.9910    5.6360 C   0  0  0  0  0  0  0  0  0  0  0  0
   23.1290   17.9880    6.1350 O   0  0  0  0  0  0  0  0  0  0  0  0
   21.6440   18.7440    4.5280 N   0  0  0  0  0  0  0  0  0  0  0  0
   18.1060   15.8110    6.0060 C   0  0  0  0  0  0  0  0  0  0  0  0
   16.6230   15.8400    6.3940 C   0  0  0  0  0  0  0  0  0  0  0  0
   15.7140   16.0180    5.1710 C   0  0  0  0  0  0  0  0  0  0  0  0
   14.6740   14.9060    5.0500 C   0  0  0  0  0  0  0  0  0  0  0  0
   13.8830   13.2220    3.6170 O   0  0  0  0  0  1  0  0  0  0  0  0
   14.8890   13.9440    3.8780 C   0  0  0  0  0  0  0  0  0  0  0  0
   16.0160   13.9830    3.3150 O   0  0  0  0  0  0  0  0  0  0  0  0
   17.6863   17.4512    4.9674 H   0  0  0  0  0  0  0  0  0  0  0  0
   21.2775   16.6069    3.2426 H   0  0  0  0  0  0  0  0  0  0  0  0
   20.4170   17.6253    2.0559 H   0  0  0  0  0  0  0  0  0  0  0  0
   19.7732   19.1828    3.6394 H   0  0  0  0  0  0  0  0  0  0  0  0
   19.2185   18.4143    6.1040 H   0  0  0  0  0  0  0  0  0  0  0  0
   20.9264   16.4898    6.7271 H   0  0  0  0  0  0  0  0  0  0  0  0
   22.2196   19.4728    4.0825 H   0  0  0  0  0  0  0  0  0  0  0  0
   18.3194   14.8109    5.6007 H   0  0  0  0  0  0  0  0  0  0  0  0
   18.6393   16.0722    6.9319 H   0  0  0  0  0  0  0  0  0  0  0  0
   16.3673   14.8931    6.8921 H   0  0  0  0  0  0  0  0  0  0  0  0
   16.4632   16.6972    7.0646 H   0  0  0  0  0  0  0  0  0  0  0  0
   15.1915   16.9822    5.2569 H   0  0  0  0  0  0  0  0  0  0  0  0
   16.3492   15.9814    4.2736 H   0  0  0  0  0  0  0  0  0  0  0  0
   14.6915   14.3196    5.9805 H   0  0  0  0  0  0  0  0  0  0  0  0
   13.7108   15.4044    4.8661 H   0  0  0  0  0  0  0  0  0  0  0  0
  2  1  1  0
  3  2  2  0
  2  4  1  1
  5  4  1  0
  6  5  1  0
  6  1  1  0
  7  6  1  0
  8  7  1  0
  9  8  2  0
 10  5  1  0
 10  8  1  0
 11  1  1  0
 12 11  1  0
 13 12  1  0
 14 13  1  0
 16 15  1  0
 16 14  1  0
 17 16  2  0
  1 18  1  6
  4 19  1  0
  4 20  1  0
  5 21  1  6
  6 22  1  1
  7 23  1  0
 10 24  1  0
 11 25  1  0
 11 26  1  0
 12 27  1  0
 12 28  1  0
 13 29  1  0
 13 30  1  0
 14 31  1  0
 14 32  1  0
M  CHG  1  15  -1
M  END
$$$$
=
     RDKit          3D

 64 63  0  0  0  0  0  0  0  0999 V2000
   15.5270   15.2660    5.9380 C   0  0  0  0  0  0  0  0  0  0  0  0
   15.0930   15.7690    4.5580 C   0  0  0  0  0  0  0  0  0  0  0  0
   15.7470   15.0040    3.4020 C   0  0  0  0  0  0  0  0  0  0  0  0
   15.7170   13.4780    3.5470 C   0  0  0  0  0  0  0  0  0  0  0  0
   14.6330   12.7400    2.7620 C   0  0  0  0  0  0  0  0  0  0  0  0
   13.3740   12.3440    3.5420 C   0  0  0  0  0  0  0  0  0  0  0  0
   12.1400   13.2050    3.2490 C   0  0  0  0  0  0  0  0  0  0  0  0
   11.7160   14.0810    4.4320 C   0  0  0  0  0  0  0  0  0  0  0  0
   10.2050   14.0660    4.6850 C   0  0  0  0  0  0  0  0  0  0  0  0
    9.8400   14.0030    6.1710 C   0  0  0  0  0  0  0  0  0  0  0  0
    8.6660   13.0510    6.4130 C   0  0  0  0  0  0  0  0  0  0  0  0
    6.5460   12.1340    5.4080 C   0  0  0  0  0  0  0  0  0  0  0  0
    7.8890   12.7870    5.1250 C   0  0  0  0  0  0  0  0  0  0  0  0
   16.9380   15.7490    6.2860 C   0  0  0  0  0  0  0  0  0  0  0  0
   17.1850   17.2180    5.9300 C   0  0  0  0  0  0  0  0  0  0  0  0
   18.5580   17.5370    5.3330 C   0  0  0  0  0  0  0  0  0  0  0  0
   18.6850   17.1580    3.8630 C   0  0  0  0  0  0  0  0  0  0  0  0
   19.9390   17.7510    3.2740 C   0  0  0  0  0  0  0  0  0  0  0  0
   20.1350   17.8580    2.0690 O   0  0  0  0  0  0  0  0  0  0  0  0
   20.7470   18.2080    4.2680 O   0  0  0  0  0  0  0  0  0  0  0  0
   22.0170   17.5210    4.3830 C   0  0  1  0  0  0  0  0  0  0  0  0
   23.0400   18.5390    4.8610 C   0  0  0  0  0  0  0  0  0  0  0  0
   21.9380   16.3760    5.4350 C   0  0  0  0  0  0  0  0  0  0  0  0
   22.2210   16.7250    6.6210 O   0  0  0  0  0  0  0  0  0  0  0  0
   21.5910   15.2380    5.0040 O   0  0  0  0  0  1  0  0  0  0  0  0
   14.8225   15.6419    6.6946 H   0  0  0  0  0  0  0  0  0  0  0  0
   15.5298   14.1661    5.9224 H   0  0  0  0  0  0  0  0  0  0  0  0
   14.0014   15.6619    4.4745 H   0  0  0  0  0  0  0  0  0  0  0  0
   15.4133   16.8183    4.4775 H   0  0  0  0  0  0  0  0  0  0  0  0
   15.2210   15.2706    2.4734 H   0  0  0  0  0  0  0  0  0  0  0  0
   16.8077   15.2953    3.3967 H   0  0  0  0  0  0  0  0  0  0  0  0
   16.6919   13.0914    3.2150 H   0  0  0  0  0  0  0  0  0  0  0  0
   15.4881   13.2905    4.6065 H   0  0  0  0  0  0  0  0  0  0  0  0
   14.3209   13.3898    1.9312 H   0  0  0  0  0  0  0  0  0  0  0  0
   15.0937   11.7907    2.4510 H   0  0  0  0  0  0  0  0  0  0  0  0
   13.1306   11.3007    3.2924 H   0  0  0  0  0  0  0  0  0  0  0  0
   13.6094   12.4916    4.6063 H   0  0  0  0  0  0  0  0  0  0  0  0
   12.3659   13.8590    2.3939 H   0  0  0  0  0  0  0  0  0  0  0  0
   11.3070   12.5183    3.0378 H   0  0  0  0  0  0  0  0  0  0  0  0
   12.2253   13.7169    5.3365 H   0  0  0  0  0  0  0  0  0  0  0  0
   11.9956   15.1165    4.1879 H   0  0  0  0  0  0  0  0  0  0  0  0
    9.7703   14.9815    4.2573 H   0  0  0  0  0  0  0  0  0  0  0  0
    9.8046   13.1569    4.2124 H   0  0  0  0  0  0  0  0  0  0  0  0
   10.7123   13.6488    6.7400 H   0  0  0  0  0  0  0  0  0  0  0  0
    9.5450   15.0103    6.5001 H   0  0  0  0  0  0  0  0  0  0  0  0
    9.0528   12.0967    6.7998 H   0  0  0  0  0  0  0  0  0  0  0  0
    7.9847   13.5186    7.1390 H   0  0  0  0  0  0  0  0  0  0  0  0
    6.3957   12.0609    6.4952 H   0  0  0  0  0  0  0  0  0  0  0  0
    5.7424   12.7420    4.9668 H   0  0  0  0  0  0  0  0  0  0  0  0
    6.5279   11.1265    4.9668 H   0  0  0  0  0  0  0  0  0  0  0  0
    8.4814   12.1210    4.4804 H   0  0  0  0  0  0  0  0  0  0  0  0
    7.7058   13.7515    4.6288 H   0  0  0  0  0  0  0  0  0  0  0  0
   17.0928   15.6219    7.3676 H   0  0  0  0  0  0  0  0  0  0  0  0
   17.6419   15.1487    5.6909 H   0  0  0  0  0  0  0  0  0  0  0  0
   16.4206   17.5214    5.1995 H   0  0  0  0  0  0  0  0  0  0  0  0
   17.1378   17.7680    6.8815 H   0  0  0  0  0  0  0  0  0  0  0  0
   18.7373   18.6179    5.4305 H   0  0  0  0  0  0  0  0  0  0  0  0
   19.2977   16.9395    5.8860 H   0  0  0  0  0  0  0  0  0  0  0  0
   18.7254   16.0624    3.7734 H   0  0  0  0  0  0  0  0  0  0  0  0
   17.8143   17.5501    3.3169 H   0  0  0  0  0  0  0  0  0  0  0  0
   22.2889   17.0848    3.4105 H   0  0  0  0  0  0  0  0  0  0  0  0
   23.0556   18.5545    5.9608 H   0  0  0  0  0  0  0  0  0  0  0  0
   24.0358   18.2629    4.4840 H   0  0  0  0  0  0  0  0  0  0  0  0
   22.7688   19.5362    4.4840 H   0  0  0  0  0  0  0  0  0  0  0  0
  2  1  1  0
  3  2  1  0
  4  3  1  0
  5  4  1  0
  6  5  1  0
  7  6  1  0
  8  7  1  0
  9  8  1  0
 10  9  1  0
 11 10  1  0
 13 12  1  0
 13 11  1  0
 14  1  1  0
 15 14  1  0
 16 15  1  0
 17 16  1  0
 18 17  1  0
 19 18  2  0
 20 18  1  0
 21 20  1  0
 22 21  1  0
 23 21  1  0
 24 23  2  0
 25 23  1  0
  1 26  1  0
  1 27  1  0
  2 28  1  0
  2 29  1  0
  3 30  1  0
  3 31  1  0
  4 32  1  0
  4 33  1  0
  5 34  1  0
  5 35  1  0
  6 36  1  0
  6 37  1  0
  7 38  1  0
  7 39  1  0
  8 40  1  0
  8 41  1  0
  9 42  1  0
  9 43  1  0
 10 44  1  0
 10 45  1  0
 11 46  1  0
 11 47  1  0
 12 48  1  0
 12 49  1  0
 12 50  1  0
 13 51  1  0
 13 52  1  0
 14 53  1  0
 14 54  1  0
 15 55  1  0
 15 56  1  0
 16 57  1  0
 16 58  1  0
 17 59  1  0
 17 60  1  0
 21 61  1  6
 22 62  1  0
 22 63  1  0
 22 64  1  0
M  CHG  1  25  -1
M  END
$$$$
=
     RDKit          3D

 60 63  0  0  0  0  0  0  0  0999 V2000
   15.5210   15.1890    5.8320 O   0  0  0  0  0  0  0  0  0  0  0  0
   15.2040   15.0190    4.6560 C   0  0  0  0  0  0  0  0  0  0  0  0
   16.0630   14.6210    3.6690 N   0  0  0  0  0  0  0  0  0  0  0  0
   17.4380   14.0990    3.9060 C   0  0  1  0  0  0  0  0  0  0  0  0
   17.6090   12.7490    3.1180 C   0  0  0  0  0  0  0  0  0  0  0  0
   18.6380   12.0880    3.4890 O   0  0  0  0  0  0  0  0  0  0  0  0
   16.7590   12.4590    2.2370 O   0  0  0  0  0  1  0  0  0  0  0  0
   18.4960   15.1230    3.4770 C   0  0  0  0  0  0  0  0  0  0  0  0
   19.5320   15.4160    4.5270 C   0  0  0  0  0  0  0  0  0  0  0  0
   19.7480   14.6850    5.6780 C   0  0  0  0  0  0  0  0  0  0  0  0
   20.7630   15.2650    6.3810 N   0  0  0  0  0  0  0  0  0  0  0  0
   21.2430   16.3620    5.7050 C   0  0  0  0  0  0  0  0  0  0  0  0
   20.4820   16.4890    4.5420 C   0  0  0  0  0  0  0  0  0  0  0  0
   20.7630   17.5650    3.6740 C   0  0  0  0  0  0  0  0  0  0  0  0
   21.7890   18.4610    3.9910 C   0  0  0  0  0  0  0  0  0  0  0  0
   22.5350   18.3030    5.1560 C   0  0  0  0  0  0  0  0  0  0  0  0
   22.2750   17.2490    6.0390 C   0  0  0  0  0  0  0  0  0  0  0  0
   13.7640   15.1890    4.1880 C   0  0  0  0  0  0  0  0  0  0  0  0
   13.0710   13.9170    4.4200 N   0  0  0  0  0  0  0  0  0  0  0  0
   11.4670   13.9360    4.8670 S   0  0  0  0  0  6  0  0  0  0  0  0
   11.0180   15.3070    4.7340 O   0  0  0  0  0  0  0  0  0  0  0  0
   11.3900   13.2330    6.1290 O   0  0  0  0  0  0  0  0  0  0  0  0
   10.6220   12.9330    3.6580 C   0  0  0  0  0  0  0  0  0  0  0  0
   11.3990   12.2770    2.6980 C   0  0  0  0  0  0  0  0  0  0  0  0
   10.7830   11.5620    1.6880 C   0  0  0  0  0  0  0  0  0  0  0  0
    9.3940   11.4810    1.6480 C   0  0  0  0  0  0  0  0  0  0  0  0
    8.5600   12.0930    2.6150 C   0  0  0  0  0  0  0  0  0  0  0  0
    9.1960   12.8370    3.6570 C   0  0  0  0  0  0  0  0  0  0  0  0
    8.3710   13.4290    4.6450 C   0  0  0  0  0  0  0  0  0  0  0  0
    6.9840   13.3260    4.6160 C   0  0  0  0  0  0  0  0  0  0  0  0
    6.3750   12.6200    3.5930 C   0  0  0  0  0  0  0  0  0  0  0  0
    7.1300   11.9960    2.5870 C   0  0  0  0  0  0  0  0  0  0  0  0
    6.3610   11.3140    1.6180 N   0  0  0  0  0  0  0  0  0  0  0  0
    5.8420   12.1600    0.5500 C   0  0  0  0  0  0  0  0  0  0  0  0
    5.4500   10.3120    2.1660 C   0  0  0  0  0  0  0  0  0  0  0  0
   15.7366   14.6867    2.6943 H   0  0  0  0  0  0  0  0  0  0  0  0
   17.5803   13.9164    4.9814 H   0  0  0  0  0  0  0  0  0  0  0  0
   19.0093   14.7354    2.5847 H   0  0  0  0  0  0  0  0  0  0  0  0
   17.9636   16.0665    3.2864 H   0  0  0  0  0  0  0  0  0  0  0  0
   19.1934   13.7839    5.9785 H   0  0  0  0  0  0  0  0  0  0  0  0
   21.1186   14.9295    7.2876 H   0  0  0  0  0  0  0  0  0  0  0  0
   20.1779   17.6986    2.7522 H   0  0  0  0  0  0  0  0  0  0  0  0
   22.0088   19.2990    3.3131 H   0  0  0  0  0  0  0  0  0  0  0  0
   23.3400   19.0167    5.3855 H   0  0  0  0  0  0  0  0  0  0  0  0
   22.8597   17.1214    6.9620 H   0  0  0  0  0  0  0  0  0  0  0  0
   13.2758   15.9922    4.7595 H   0  0  0  0  0  0  0  0  0  0  0  0
   13.7327   15.4580    3.1219 H   0  0  0  0  0  0  0  0  0  0  0  0
   13.1334   13.3764    3.5455 H   0  0  0  0  0  0  0  0  0  0  0  0
   12.4967   12.3298    2.7464 H   0  0  0  0  0  0  0  0  0  0  0  0
   11.3879   11.0591    0.9191 H   0  0  0  0  0  0  0  0  0  0  0  0
    8.9235   10.9168    0.8293 H   0  0  0  0  0  0  0  0  0  0  0  0
    8.8441   13.9901    5.4643 H   0  0  0  0  0  0  0  0  0  0  0  0
    6.3762   13.8018    5.3997 H   0  0  0  0  0  0  0  0  0  0  0  0
    5.2778   12.5463    3.5676 H   0  0  0  0  0  0  0  0  0  0  0  0
    5.3142   13.0203    0.9874 H   0  0  0  0  0  0  0  0  0  0  0  0
    6.6757   12.5186   -0.0716 H   0  0  0  0  0  0  0  0  0  0  0  0
    5.1445   11.5793   -0.0716 H   0  0  0  0  0  0  0  0  0  0  0  0
    5.4831   10.3484    3.2649 H   0  0  0  0  0  0  0  0  0  0  0  0
    4.4260   10.5208    1.8229 H   0  0  0  0  0  0  0  0  0  0  0  0
    5.7550    9.3124    1.8229 H   0  0  0  0  0  0  0  0  0  0  0  0
  2  1  2  0
  3  2  1  0
  4  3  1  0
  5  4  1  0
  6  5  2  0
  7  5  1  0
  8  4  1  0
  9  8  1  0
 10  9  2  0
 11 10  1  0
 12 11  1  0
 13  9  1  0
 13 12  2  0
 14 13  1  0
 15 14  2  0
 16 15  1  0
 17 12  1  0
 17 16  2  0
 18  2  1  0
 19 18  1  0
 20 19  1  0
 21 20  2  0
 22 20  2  0
 23 20  1  0
 24 23  2  0
 25 24  1  0
 26 25  2  0
 27 26  1  0
 28 27  2  0
 28 23  1  0
 29 28  1  0
 30 29  2  0
 31 30  1  0
 32 31  2  0
 32 27  1  0
 33 32  1  0
 34 33  1  0
 35 33  1  0
  3 36  1  0
  4 37  1  1
  8 38  1  0
  8 39  1  0
 10 40  1  0
 11 41  1  0
 14 42  1  0
 15 43  1  0
 16 44  1  0
 17 45  1  0
 18 46  1  0
 18 47  1  0
 19 48  1  0
 24 49  1  0
 25 50  1  0
 26 51  1  0
 29 52  1  0
 30 53  1  0
 31 54  1  0
 34 55  1  0
 34 56  1  0
 34 57  1  0
 35 58  1  0
 35 59  1  0
 35 60  1  0
M  CHG  1   7  -1
M  END
$$$$
=
     RDKit          3D

 35 37  0  0  0  0  0  0  0  0999 V2000
   28.8470   27.3460   15.0370 C   0  0  0  0  0  0  0  0  0  0  0  0
   27.8320   27.5850   15.8790 C   0  0  0  0  0  0  0  0  0  0  0  0
   26.2810   26.8100   15.8890 S   0  0  0  0  0  0  0  0  0  0  0  0
   25.7370   27.8100   17.2030 C   0  0  0  0  0  0  0  0  0  0  0  0
   24.5600   27.7780   17.8080 N   0  0  0  0  0  4  0  0  0  0  0  0
   26.6770   28.6390   17.6160 N   0  0  0  0  0  0  0  0  0  0  0  0
   27.9180   28.6030   16.9390 C   0  0  0  0  0  0  0  0  0  0  0  0
   28.8130   29.3450   17.2710 O   0  0  0  0  0  0  0  0  0  0  0  0
   28.3030   24.4210   11.9730 C   0  0  0  0  0  0  0  0  0  0  0  0
   28.8160   24.0550   13.2270 C   0  0  0  0  0  0  0  0  0  0  0  0
   29.0420   25.0130   14.2160 C   0  0  0  0  0  0  0  0  0  0  0  0
   28.7560   26.3580   13.9610 C   0  0  0  0  0  0  0  0  0  0  0  0
   28.2840   26.7430   12.7040 C   0  0  0  0  0  0  0  0  0  0  0  0
   28.0600   25.7800   11.7190 C   0  0  0  0  0  0  0  0  0  0  0  0
   28.8920   22.4990   10.7060 O   0  0  0  0  0  1  0  0  0  0  0  0
   27.9950   23.3710   10.9240 C   0  0  0  0  0  0  0  0  0  0  0  0
   26.8570   23.4380   10.3640 O   0  0  0  0  0  0  0  0  0  0  0  0
   23.4640   27.0240   17.4770 C   0  0  0  0  0  0  0  0  0  0  0  0
   22.5970   26.6710   18.5260 C   0  0  0  0  0  0  0  0  0  0  0  0
   21.4380   25.9220   18.2940 C   0  0  0  0  0  0  0  0  0  0  0  0
   21.1150   25.5310   16.9990 C   0  0  0  0  0  0  0  0  0  0  0  0
   21.9400   25.9020   15.9420 C   0  0  0  0  0  0  0  0  0  0  0  0
   23.0970   26.6530   16.1790 C   0  0  0  0  0  0  0  0  0  0  0  0
   29.7819   27.9127   15.1590 H   0  0  0  0  0  0  0  0  0  0  0  0
   24.4550   28.3943   18.6266 H   0  0  0  0  0  0  0  0  0  0  0  0
   26.5133   29.2864   18.4002 H   0  0  0  0  0  0  0  0  0  0  0  0
   29.0430   22.9986   13.4330 H   0  0  0  0  0  0  0  0  0  0  0  0
   29.4443   24.7109   15.1942 H   0  0  0  0  0  0  0  0  0  0  0  0
   28.0890   27.8043   12.4906 H   0  0  0  0  0  0  0  0  0  0  0  0
   27.6883   26.0898   10.7311 H   0  0  0  0  0  0  0  0  0  0  0  0
   22.8349   26.9905   19.5513 H   0  0  0  0  0  0  0  0  0  0  0  0
   20.7842   25.6432   19.1335 H   0  0  0  0  0  0  0  0  0  0  0  0
   20.2120   24.9315   16.8115 H   0  0  0  0  0  0  0  0  0  0  0  0
   21.6818   25.6037   14.9152 H   0  0  0  0  0  0  0  0  0  0  0  0
   23.7281   26.9565   15.3307 H   0  0  0  0  0  0  0  0  0  0  0  0
  2  1  2  0
  3  2  1  0
  4  3  1  0
  5  4  2  0
  6  4  1  0
  7  6  1  0
  7  2  1  0
  8  7  2  0
 10  9  2  0
 11 10  1  0
 12 11  2  0
 12  1  1  0
 13 12  1  0
 14 13  2  0
 14  9  1  0
 16 15  1  0
 16  9  1  0
 17 16  2  0
 18  5  1  0
 19 18  2  0
 20 19  1  0
 21 20  2  0
 22 21  1  0
 23 22  2  0
 23 18  1  0
  1 24  1  0
  5 25  1  0
  6 26  1  0
 10 27  1  0
 11 28  1  0
 13 29  1  0
 14 30  1  0
 19 31  1  0
 20 32  1  0
 21 33  1  0
 22 34  1  0
 23 35  1  0
M  CHG  2   5   1  15  -1
M  END
$$$$
=
     RDKit          3D

 52 52  0  0  0  0  0  0  0  0999 V2000
   15.5880   12.9400    2.7100 C   0  0  2  0  0  0  0  0  0  0  0  0
   16.5710   12.2380    1.9340 O   0  0  0  0  0  0  0  0  0  0  0  0
   16.9980   12.7490    3.2060 C   0  0  1  0  0  0  0  0  0  0  0  0
   14.4710   12.0890    3.2280 C   0  0  0  0  0  0  0  0  0  0  0  0
   12.5560   13.7290    3.6350 C   0  0  0  0  0  0  0  0  0  0  0  0
   13.1100   12.6870    2.9930 C   0  0  0  0  0  0  0  0  0  0  0  0
   13.1810   14.5790    4.7050 C   0  0  0  0  0  0  0  0  0  0  0  0
   13.8640   15.8320    4.1480 C   0  0  0  0  0  0  0  0  0  0  0  0
   15.2980   16.0070    4.6590 C   0  0  0  0  0  0  0  0  0  0  0  0
   16.6680   15.7530    6.7600 C   0  0  0  0  0  0  0  0  0  0  0  0
   15.5430   15.1720    5.9170 C   0  0  0  0  0  0  0  0  0  0  0  0
   17.9910   13.8630    3.1370 C   0  0  0  0  0  0  0  0  0  0  0  0
   18.9590   13.7990    4.3180 C   0  0  0  0  0  0  0  0  0  0  0  0
   19.6520   15.1430    4.5510 C   0  0  0  0  0  0  0  0  0  0  0  0
   20.1710   15.2530    5.9860 C   0  0  0  0  0  0  0  0  0  0  0  0
   21.5620   15.8860    6.0850 C   0  0  0  0  0  0  0  0  0  0  0  0
   21.7990   17.1230    5.2100 C   0  0  0  0  0  0  0  0  0  0  0  0
   21.2510   18.4270    5.7820 C   0  0  0  0  0  0  0  0  0  0  0  0
   19.8240   18.7790    5.3500 C   0  0  0  0  0  0  0  0  0  0  0  0
   19.5080   18.4540    4.1730 O   0  0  0  0  0  0  0  0  0  0  0  0
   19.1410   19.3730    6.2320 O   0  0  0  0  0  1  0  0  0  0  0  0
   14.9375   13.8213    2.6097 H   0  0  0  0  0  0  0  0  0  0  0  0
   17.4214   12.3642    4.1455 H   0  0  0  0  0  0  0  0  0  0  0  0
   14.5146   11.1115    2.7254 H   0  0  0  0  0  0  0  0  0  0  0  0
   14.6053   12.0013    4.3162 H   0  0  0  0  0  0  0  0  0  0  0  0
   11.5276   13.9897    3.3442 H   0  0  0  0  0  0  0  0  0  0  0  0
   12.5001   12.2180    2.2069 H   0  0  0  0  0  0  0  0  0  0  0  0
   12.3954   14.8910    5.4089 H   0  0  0  0  0  0  0  0  0  0  0  0
   13.9551   13.9727    5.1980 H   0  0  0  0  0  0  0  0  0  0  0  0
   13.8889   15.7597    3.0507 H   0  0  0  0  0  0  0  0  0  0  0  0
   13.2840   16.7026    4.4880 H   0  0  0  0  0  0  0  0  0  0  0  0
   15.9999   15.6880    3.8744 H   0  0  0  0  0  0  0  0  0  0  0  0
   15.4515   17.0671    4.9093 H   0  0  0  0  0  0  0  0  0  0  0  0
   16.4285   15.6293    7.8265 H   0  0  0  0  0  0  0  0  0  0  0  0
   17.6066   15.2269    6.5316 H   0  0  0  0  0  0  0  0  0  0  0  0
   16.7824   16.8229    6.5316 H   0  0  0  0  0  0  0  0  0  0  0  0
   14.6212   15.1501    6.5169 H   0  0  0  0  0  0  0  0  0  0  0  0
   15.8321   14.1569    5.6072 H   0  0  0  0  0  0  0  0  0  0  0  0
   18.5600   13.7817    2.1991 H   0  0  0  0  0  0  0  0  0  0  0  0
   17.4509   14.8205    3.1745 H   0  0  0  0  0  0  0  0  0  0  0  0
   18.3991   13.5241    5.2241 H   0  0  0  0  0  0  0  0  0  0  0  0
   19.7305   13.0487    4.0905 H   0  0  0  0  0  0  0  0  0  0  0  0
   20.4984   15.2364    3.8546 H   0  0  0  0  0  0  0  0  0  0  0  0
   18.9211   15.9473    4.3809 H   0  0  0  0  0  0  0  0  0  0  0  0
   19.4664   15.8681    6.5650 H   0  0  0  0  0  0  0  0  0  0  0  0
   20.2522   14.2293    6.3803 H   0  0  0  0  0  0  0  0  0  0  0  0
   21.7255   16.1781    7.1328 H   0  0  0  0  0  0  0  0  0  0  0  0
   22.2633   15.1225    5.7172 H   0  0  0  0  0  0  0  0  0  0  0  0
   22.8837   17.2401    5.0699 H   0  0  0  0  0  0  0  0  0  0  0  0
   21.2561   16.9454    4.2699 H   0  0  0  0  0  0  0  0  0  0  0  0
   21.2654   18.3501    6.8792 H   0  0  0  0  0  0  0  0  0  0  0  0
   21.8954   19.2275    5.3896 H   0  0  0  0  0  0  0  0  0  0  0  0
  2  1  1  0
  3  1  1  0
  3  2  1  0
  4  1  1  0
  6  5  2  0
  6  4  1  0
  7  5  1  0
  8  7  1  0
  9  8  1  0
 11  9  1  0
 11 10  1  0
 12  3  1  0
 13 12  1  0
 14 13  1  0
 15 14  1  0
 16 15  1  0
 17 16  1  0
 18 17  1  0
 19 18  1  0
 20 19  2  0
 21 19  1  0
  1 22  1  6
  3 23  1  1
  4 24  1  0
  4 25  1  0
  5 26  1  0
  6 27  1  0
  7 28  1  0
  7 29  1  0
  8 30  1  0
  8 31  1  0
  9 32  1  0
  9 33  1  0
 10 34  1  0
 10 35  1  0
 10 36  1  0
 11 37  1  0
 11 38  1  0
 12 39  1  0
 12 40  1  0
 13 41  1  0
 13 42  1  0
 14 43  1  0
 14 44  1  0
 15 45  1  0
 15 46  1  0
 16 47  1  0
 16 48  1  0
 17 49  1  0
 17 50  1  0
 18 51  1  0
 18 52  1  0
M  CHG  1  21  -1
M  END
$$$$
=
     RDKit          3D

 38 40  0  0  0  0  0  0  0  0999 V2000
   29.2360   26.0540   14.8050 C   0  0  0  0  0  0  0  0  0  0  0  0
   30.0440   26.2110   13.8870 O   0  0  0  0  0  0  0  0  0  0  0  0
   27.8710   26.1840   14.5980 N   0  0  0  0  0  0  0  0  0  0  0  0
   26.9490   26.1910   15.6150 N   0  0  0  0  0  0  0  0  0  0  0  0
   25.8110   26.5090   15.0750 C   0  0  0  0  0  0  0  0  0  0  0  0
   25.8680   26.8500   13.6130 C   0  0  0  0  0  0  0  0  0  0  0  0
   27.2750   26.3720   13.2820 C   0  0  2  0  0  0  0  0  0  0  0  0
   27.2410   25.0700   12.5120 C   0  0  0  0  0  0  0  0  0  0  0  0
   28.1080   24.5900   11.5470 C   0  0  0  0  0  0  0  0  0  0  0  0
   27.7290   23.3070   11.0600 C   0  0  0  0  0  0  0  0  0  0  0  0
   26.5900   22.8390   11.6710 C   0  0  0  0  0  0  0  0  0  0  0  0
   25.9810   23.9420   12.8260 S   0  0  0  0  0  0  0  0  0  0  0  0
   24.5780   26.5950   15.8060 C   0  0  0  0  0  0  0  0  0  0  0  0
   23.2550   26.6040   15.3990 C   0  0  0  0  0  0  0  0  0  0  0  0
   22.4660   26.7060   16.5720 C   0  0  0  0  0  0  0  0  0  0  0  0
   23.3500   26.7530   17.6210 C   0  0  0  0  0  0  0  0  0  0  0  0
   24.6260   26.6900   17.1690 O   0  0  0  0  0  0  0  0  0  0  0  0
   29.6470   25.7450   16.2370 C   0  0  0  0  0  0  0  0  0  0  0  0
   30.3920   26.9110   16.8890 C   0  0  0  0  0  0  0  0  0  0  0  0
   29.6540   27.4730   18.1010 C   0  0  0  0  0  0  0  0  0  0  0  0
   27.4310   28.2050   18.3400 O   0  0  0  0  0  1  0  0  0  0  0  0
   28.5510   28.5010   17.8310 C   0  0  0  0  0  0  0  0  0  0  0  0
   28.8730   29.5040   17.1370 O   0  0  0  0  0  0  0  0  0  0  0  0
   25.1059   26.3045   13.0370 H   0  0  0  0  0  0  0  0  0  0  0  0
   25.6709   27.9061   13.3766 H   0  0  0  0  0  0  0  0  0  0  0  0
   27.8338   27.0743   12.6460 H   0  0  0  0  0  0  0  0  0  0  0  0
   28.9934   25.1394   11.1945 H   0  0  0  0  0  0  0  0  0  0  0  0
   28.2824   22.7552   10.2859 H   0  0  0  0  0  0  0  0  0  0  0  0
   26.1250   21.8685   11.4433 H   0  0  0  0  0  0  0  0  0  0  0  0
   22.8868   26.5436   14.3642 H   0  0  0  0  0  0  0  0  0  0  0  0
   21.3681   26.7405   16.6299 H   0  0  0  0  0  0  0  0  0  0  0  0
   23.0629   26.8309   18.6800 H   0  0  0  0  0  0  0  0  0  0  0  0
   28.7435   25.5283   16.8259 H   0  0  0  0  0  0  0  0  0  0  0  0
   30.3269   24.8806   16.2140 H   0  0  0  0  0  0  0  0  0  0  0  0
   31.3833   26.5598   17.2115 H   0  0  0  0  0  0  0  0  0  0  0  0
   30.4703   27.7158   16.1432 H   0  0  0  0  0  0  0  0  0  0  0  0
   29.1948   26.6259   18.6316 H   0  0  0  0  0  0  0  0  0  0  0  0
   30.4190   28.0196   18.6719 H   0  0  0  0  0  0  0  0  0  0  0  0
  2  1  2  0
  3  1  1  0
  4  3  1  0
  5  4  2  0
  6  5  1  0
  7  6  1  0
  7  3  1  0
  8  7  1  0
  9  8  2  0
 10  9  1  0
 11 10  2  0
 12 11  1  0
 12  8  1  0
 13  5  1  0
 14 13  2  0
 15 14  1  0
 16 15  2  0
 17 13  1  0
 17 16  1  0
 18  1  1  0
 19 18  1  0
 20 19  1  0
 22 21  1  0
 22 20  1  0
 23 22  2  0
  6 24  1  0
  6 25  1  0
  7 26  1  6
  9 27  1  0
 10 28  1  0
 11 29  1  0
 14 30  1  0
 15 31  1  0
 16 32  1  0
 18 33  1  0
 18 34  1  0
 19 35  1  0
 19 36  1  0
 20 37  1  0
 20 38  1  0
M  CHG  1  21  -1
M  END
$$$$
=
     RDKit          3D

 48 50  0  0  0  0  0  0  0  0999 V2000
   27.2550   28.6020   16.7560 C   0  0  0  0  0  0  0  0  0  0  0  0
   27.6300   27.3200   16.0500 N   0  0  1  0  0  4  0  0  0  0  0  0
   27.3590   27.3460   14.5800 C   0  0  0  0  0  0  0  0  0  0  0  0
   28.4450   26.4580   13.9460 C   0  0  0  0  0  0  0  0  0  0  0  0
   29.6570   26.8440   14.8070 C   0  0  0  0  0  0  0  0  0  0  0  0
   29.1460   26.9310   16.2470 C   0  0  1  0  0  0  0  0  0  0  0  0
   28.0980   24.9510   14.0810 C   0  0  0  0  0  0  0  0  0  0  0  0
   28.9010   24.0950   13.1070 C   0  0  0  0  0  0  0  0  0  0  0  0
   28.6000   24.4850   11.6830 N   0  0  0  0  0  4  0  0  0  0  0  0
   28.0510   25.8710   11.4860 C   0  0  0  0  0  0  0  0  0  0  0  0
   28.7210   26.8240   12.4650 C   0  0  0  0  0  0  0  0  0  0  0  0
   30.0460   27.7850   17.1870 C   0  0  0  0  0  0  0  0  0  0  0  0
   30.6550   28.7100   16.5830 O   0  0  0  0  0  0  0  0  0  0  0  0
   30.0720   27.4160   18.3870 O   0  0  0  0  0  1  0  0  0  0  0  0
   27.7160   23.4920   11.0290 C   0  0  0  0  0  0  0  0  0  0  0  0
   28.2830   22.4710   10.6860 O   0  0  0  0  0  0  0  0  0  0  0  0
   26.2610   23.8110   10.8230 C   0  0  0  0  0  0  0  0  0  0  0  0
   25.4080   23.2860   11.9750 C   0  0  0  0  0  0  0  0  0  0  0  0
   24.8940   24.3970   12.8090 C   0  0  0  0  0  0  0  0  0  0  0  0
   24.6660   24.0990   14.1210 O   0  0  0  0  0  0  0  0  0  0  0  0
   24.2170   25.2310   14.7760 N   0  0  0  0  0  0  0  0  0  0  0  0
   24.1540   26.1670   13.8360 C   0  0  0  0  0  0  0  0  0  0  0  0
   24.5670   25.7130   12.5760 C   0  0  0  0  0  0  0  0  0  0  0  0
   23.7270   27.3780   14.2020 O   0  0  0  0  0  0  0  0  0  0  0  0
   27.3000   28.4480   17.8442 H   0  0  0  0  0  0  0  0  0  0  0  0
   27.9580   29.3979   16.4689 H   0  0  0  0  0  0  0  0  0  0  0  0
   26.2339   28.8936   16.4689 H   0  0  0  0  0  0  0  0  0  0  0  0
   27.0250   26.6151   16.4951 H   0  0  0  0  0  0  0  0  0  0  0  0
   26.3586   26.9416   14.3663 H   0  0  0  0  0  0  0  0  0  0  0  0
   27.3832   28.3698   14.1785 H   0  0  0  0  0  0  0  0  0  0  0  0
   30.4419   26.0776   14.7264 H   0  0  0  0  0  0  0  0  0  0  0  0
   30.0952   27.7979   14.4784 H   0  0  0  0  0  0  0  0  0  0  0  0
   29.2077   25.9999   16.8294 H   0  0  0  0  0  0  0  0  0  0  0  0
   28.3201   24.6252   15.1079 H   0  0  0  0  0  0  0  0  0  0  0  0
   27.0305   24.8239   13.8478 H   0  0  0  0  0  0  0  0  0  0  0  0
   29.9743   24.2372   13.3013 H   0  0  0  0  0  0  0  0  0  0  0  0
   28.6238   23.0403   13.2512 H   0  0  0  0  0  0  0  0  0  0  0  0
   29.5252   24.4939   11.2305 H   0  0  0  0  0  0  0  0  0  0  0  0
   28.2512   26.2021   10.4563 H   0  0  0  0  0  0  0  0  0  0  0  0
   26.9655   25.8649   11.6638 H   0  0  0  0  0  0  0  0  0  0  0  0
   29.8072   26.7976   12.2932 H   0  0  0  0  0  0  0  0  0  0  0  0
   28.3036   27.8264   12.2888 H   0  0  0  0  0  0  0  0  0  0  0  0
   26.1397   24.9022   10.7560 H   0  0  0  0  0  0  0  0  0  0  0  0
   25.9275   23.3239    9.8948 H   0  0  0  0  0  0  0  0  0  0  0  0
   24.5575   22.7223   11.5641 H   0  0  0  0  0  0  0  0  0  0  0  0
   26.0342   22.6374   12.6053 H   0  0  0  0  0  0  0  0  0  0  0  0
   24.6175   26.2728   11.6305 H   0  0  0  0  0  0  0  0  0  0  0  0
   23.6651   28.1044   13.5322 H   0  0  0  0  0  0  0  0  0  0  0  0
  2  1  1  0
  3  2  1  0
  4  3  1  0
  5  4  1  0
  6  5  1  0
  6  2  1  0
  7  4  1  0
  8  7  1  0
  9  8  1  0
 10  9  1  0
 11 10  1  0
 11  4  1  0
 12  6  1  0
 13 12  2  0
 14 12  1  0
 15  9  1  0
 16 15  2  0
 17 15  1  0
 18 17  1  0
 19 18  1  0
 20 19  1  0
 21 20  1  0
 22 21  2  0
 23 22  1  0
 23 19  2  0
 24 22  1  0
  1 25  1  0
  1 26  1  0
  1 27  1  0
  2 28  1  1
  3 29  1  0
  3 30  1  0
  5 31  1  0
  5 32  1  0
  6 33  1  1
  7 34  1  0
  7 35  1  0
  8 36  1  0
  8 37  1  0
  9 38  1  0
 10 39  1  0
 10 40  1  0
 11 41  1  0
 11 42  1  0
 17 43  1  0
 17 44  1  0
 18 45  1  0
 18 46  1  0
 23 47  1  0
 24 48  1  0
M  CHG  3   2   1   9   1  14  -1
M  END
$$$$
=
     RDKit          3D

 20 19  0  0  0  0  0  0  0  0999 V2000
   20.8140   17.3360    4.2700 C   0  0  0  0  0  0  0  0  0  0  0  0
   19.8860   16.9490    3.3630 C   0  0  0  0  0  0  0  0  0  0  0  0
   19.6900   17.5180    1.9890 C   0  0  0  0  0  0  0  0  0  0  0  0
   20.9440   16.6880    5.6290 C   0  0  0  0  0  0  0  0  0  0  0  0
   18.9000   15.7890    3.6610 C   0  0  0  0  0  0  0  0  0  0  0  0
   17.8040   16.1510    4.1740 O   0  0  0  0  0  0  0  0  0  0  0  0
   19.3110   14.6420    3.3300 O   0  0  0  0  0  1  0  0  0  0  0  0
   22.9990   18.3910    4.9490 C   0  0  0  0  0  0  0  0  0  0  0  0
   21.7870   18.4710    4.0330 C   0  0  0  0  0  0  0  0  0  0  0  0
   19.3327   18.5553    2.0692 H   0  0  0  0  0  0  0  0  0  0  0  0
   20.6460   17.5005    1.4451 H   0  0  0  0  0  0  0  0  0  0  0  0
   18.9476   16.9155    1.4451 H   0  0  0  0  0  0  0  0  0  0  0  0
   20.7921   17.4452    6.4123 H   0  0  0  0  0  0  0  0  0  0  0  0
   20.1867   15.8969    5.7320 H   0  0  0  0  0  0  0  0  0  0  0  0
   21.9479   16.2502    5.7320 H   0  0  0  0  0  0  0  0  0  0  0  0
   22.6680   18.4128    5.9978 H   0  0  0  0  0  0  0  0  0  0  0  0
   23.5435   17.4550    4.7558 H   0  0  0  0  0  0  0  0  0  0  0  0
   23.6618   19.2473    4.7558 H   0  0  0  0  0  0  0  0  0  0  0  0
   22.1295   18.4315    2.9884 H   0  0  0  0  0  0  0  0  0  0  0  0
   21.2636   19.4143    4.2478 H   0  0  0  0  0  0  0  0  0  0  0  0
  2  1  2  0
  3  2  1  0
  4  1  1  0
  5  2  1  0
  6  5  2  0
  7  5  1  0
  9  1  1  0
  9  8  1  0
  3 10  1  0
  3 11  1  0
  3 12  1  0
  4 13  1  0
  4 14  1  0
  4 15  1  0
  8 16  1  0
  8 17  1  0
  8 18  1  0
  9 19  1  0
  9 20  1  0
M  CHG  1   7  -1
M  END
$$$$
=
     RDKit          3D

 41 42  0  0  0  0  0  0  0  0999 V2000
   19.7280   15.9940    2.7880 O   0  0  0  0  0  0  0  0  0  0  0  0
   19.6410   16.0180    4.0090 C   0  0  0  0  0  0  0  0  0  0  0  0
   18.5310   15.5970    4.7150 N   0  0  0  0  0  0  0  0  0  0  0  0
   18.5060   15.5660    6.1750 C   0  0  0  0  0  0  0  0  0  0  0  0
   17.1400   15.1810    6.7420 C   0  0  0  0  0  0  0  0  0  0  0  0
   16.0190   15.8610    5.9590 C   0  0  0  0  0  0  0  0  0  0  0  0
   16.0670   15.5030    4.4570 C   0  0  1  0  0  0  0  0  0  0  0  0
   17.4260   14.9360    4.0220 C   0  0  0  0  0  0  0  0  0  0  0  0
   14.9930   14.5950    4.0760 N   0  0  0  0  0  0  0  0  0  0  0  0
   15.1310   13.3570    3.5190 C   0  0  0  0  0  0  0  0  0  0  0  0
   13.8530   12.8900    3.3230 C   0  0  0  0  0  0  0  0  0  0  0  0
   13.0010   13.9200    3.7980 C   0  0  0  0  0  0  0  0  0  0  0  0
   13.7160   14.9650    4.2640 N   0  0  0  0  0  0  0  0  0  0  0  0
   11.3860   13.7810    3.7460 C   0  0  0  0  0  0  0  0  0  0  0  0
   10.7310   14.6690    4.3840 O   0  0  0  0  0  0  0  0  0  0  0  0
   10.8920   12.8130    3.0870 O   0  0  0  0  0  1  0  0  0  0  0  0
   20.6190   16.4770    4.8360 O   0  0  0  0  0  0  0  0  0  0  0  0
   20.9880   17.8780    4.8520 C   0  0  0  0  0  0  0  0  0  0  0  0
   21.5380   18.3290    3.4940 C   0  0  0  0  0  0  0  0  0  0  0  0
   19.8230   18.7560    5.3220 C   0  0  0  0  0  0  0  0  0  0  0  0
   22.1170   17.9680    5.8910 C   0  0  0  0  0  0  0  0  0  0  0  0
   19.2488   14.8329    6.5226 H   0  0  0  0  0  0  0  0  0  0  0  0
   18.7341   16.5822    6.5291 H   0  0  0  0  0  0  0  0  0  0  0  0
   17.0162   14.0900    6.6759 H   0  0  0  0  0  0  0  0  0  0  0  0
   17.0876   15.5084    7.7908 H   0  0  0  0  0  0  0  0  0  0  0  0
   15.0512   15.5387    6.3708 H   0  0  0  0  0  0  0  0  0  0  0  0
   16.1476   16.9493    6.0546 H   0  0  0  0  0  0  0  0  0  0  0  0
   15.9209   16.4535    3.9229 H   0  0  0  0  0  0  0  0  0  0  0  0
   17.4537   13.8603    4.2503 H   0  0  0  0  0  0  0  0  0  0  0  0
   17.5426   15.1112    2.9423 H   0  0  0  0  0  0  0  0  0  0  0  0
   16.0709   12.8395    3.2768 H   0  0  0  0  0  0  0  0  0  0  0  0
   13.5547   11.9237    2.8902 H   0  0  0  0  0  0  0  0  0  0  0  0
   22.3800   19.0194    3.6504 H   0  0  0  0  0  0  0  0  0  0  0  0
   21.8838   17.4511    2.9286 H   0  0  0  0  0  0  0  0  0  0  0  0
   20.7449   18.8401    2.9286 H   0  0  0  0  0  0  0  0  0  0  0  0
   19.7983   18.7746    6.4216 H   0  0  0  0  0  0  0  0  0  0  0  0
   19.9579   19.7790    4.9409 H   0  0  0  0  0  0  0  0  0  0  0  0
   18.8767   18.3445    4.9409 H   0  0  0  0  0  0  0  0  0  0  0  0
   21.6875   17.9338    6.9031 H   0  0  0  0  0  0  0  0  0  0  0  0
   22.8071   17.1220    5.7568 H   0  0  0  0  0  0  0  0  0  0  0  0
   22.6644   18.9126    5.7568 H   0  0  0  0  0  0  0  0  0  0  0  0
  2  1  2  0
  3  2  1  0
  4  3  1  0
  5  4  1  0
  6  5  1  0
  7  6  1  0
  8  7  1  0
  8  3  1  0
  9  7  1  0
 10  9  1  0
 11 10  2  0
 12 11  1  0
 13 12  2  0
 13  9  1  0
 14 12  1  0
 15 14  2  0
 16 14  1  0
 17  2  1  0
 18 17  1  0
 19 18  1  0
 20 18  1  0
 21 18  1  0
  4 22  1  0
  4 23  1  0
  5 24  1  0
  5 25  1  0
  6 26  1  0
  6 27  1  0
  7 28  1  6
  8 29  1  0
  8 30  1  0
 10 31  1  0
 11 32  1  0
 19 33  1  0
 19 34  1  0
 19 35  1  0
 20 36  1  0
 20 37  1  0
 20 38  1  0
 21 39  1  0
 21 40  1  0
 21 41  1  0
M  CHG  1  16  -1
M  END
$$$$
=
     RDKit          3D

 13 13  0  0  0  0  0  0  0  0999 V2000
   19.4950   15.8550    4.8730 N   0  0  0  0  0  0  0  0  0  0  0  0
   19.9620   15.0250    3.8770 N   0  0  0  0  0  0  0  0  0  0  0  0
   18.9860   14.3900    3.3680 N   0  0  0  0  0  0  0  0  0  0  0  0
   17.8420   14.7770    3.9920 N   0  0  0  0  0  0  0  0  0  0  0  0
   18.1230   15.7500    4.9220 C   0  0  0  0  0  0  0  0  0  0  0  0
   16.9900   16.5120    5.8560 S   0  0  0  0  0  0  0  0  0  0  0  0
   20.3600   16.8750    5.4490 C   0  0  0  0  0  0  0  0  0  0  0  0
   21.1160   15.4180    7.1930 O   0  0  0  0  0  1  0  0  0  0  0  0
   21.4320   16.3780    6.4350 C   0  0  0  0  0  0  0  0  0  0  0  0
   22.5350   17.0000    6.3590 O   0  0  0  0  0  0  0  0  0  0  0  0
   16.9044   14.3978    3.7972 H   0  0  0  0  0  0  0  0  0  0  0  0
   20.8754   17.3846    4.6215 H   0  0  0  0  0  0  0  0  0  0  0  0
   19.6968   17.5256    6.0380 H   0  0  0  0  0  0  0  0  0  0  0  0
  2  1  1  0
  3  2  2  0
  4  3  1  0
  5  4  1  0
  5  1  1  0
  6  5  2  0
  7  1  1  0
  9  8  1  0
  9  7  1  0
 10  9  2  0
  4 11  1  0
  7 12  1  0
  7 13  1  0
M  CHG  1   8  -1
M  END
$$$$
=
     RDKit          3D

 31 32  0  0  0  0  0  0  0  0999 V2000
   17.0840   15.9490    4.3100 C   0  0  0  0  0  0  0  0  0  0  0  0
   15.9580   16.3160    5.0490 C   0  0  0  0  0  0  0  0  0  0  0  0
   14.8330   15.4950    5.0790 C   0  0  0  0  0  0  0  0  0  0  0  0
   14.8530   14.3000    4.3780 C   0  0  0  0  0  0  0  0  0  0  0  0
   16.0100   13.9550    3.6820 C   0  0  0  0  0  0  0  0  0  0  0  0
   17.1050   14.7660    3.6570 N   0  0  0  0  0  0  0  0  0  0  0  0
   20.9270   17.8020    4.7020 C   0  0  0  0  0  0  0  0  0  0  0  0
   19.7380   18.2650    5.5520 C   0  0  0  0  0  0  0  0  0  0  0  0
   18.6620   17.1780    5.6580 C   0  0  0  0  0  0  0  0  0  0  0  0
   18.2180   16.7840    4.3030 N   0  0  0  0  0  0  0  0  0  0  0  0
   19.3340   16.2580    3.4840 C   0  0  0  0  0  0  0  0  0  0  0  0
   20.4110   17.3380    3.3370 C   0  0  0  0  0  0  0  0  0  0  0  0
   22.3530   17.0960    6.4690 O   0  0  0  0  0  1  0  0  0  0  0  0
   21.7660   16.7210    5.4160 C   0  0  0  0  0  0  0  0  0  0  0  0
   21.7900   15.5880    4.8580 O   0  0  0  0  0  0  0  0  0  0  0  0
   16.0380   12.6440    2.9150 C   0  0  0  0  0  0  0  0  0  0  0  0
   15.8790   12.7590    1.5660 F   0  0  0  0  0  0  0  0  0  0  0  0
   15.0750   11.7680    3.3320 F   0  0  0  0  0  0  0  0  0  0  0  0
   17.2190   11.9710    3.0820 F   0  0  0  0  0  0  0  0  0  0  0  0
   15.9591   17.2610    5.6121 H   0  0  0  0  0  0  0  0  0  0  0  0
   13.9414   15.7912    5.6511 H   0  0  0  0  0  0  0  0  0  0  0  0
   13.9746   13.6379    4.3710 H   0  0  0  0  0  0  0  0  0  0  0  0
   21.6133   18.6482    4.5505 H   0  0  0  0  0  0  0  0  0  0  0  0
   20.0963   18.5122    6.5622 H   0  0  0  0  0  0  0  0  0  0  0  0
   19.2908   19.1453    5.0671 H   0  0  0  0  0  0  0  0  0  0  0  0
   19.0775   16.3012    6.1763 H   0  0  0  0  0  0  0  0  0  0  0  0
   17.8035   17.5684    6.2241 H   0  0  0  0  0  0  0  0  0  0  0  0
   19.7656   15.3741    3.9763 H   0  0  0  0  0  0  0  0  0  0  0  0
   18.9584   15.9760    2.4893 H   0  0  0  0  0  0  0  0  0  0  0  0
   21.2513   16.9288    2.7570 H   0  0  0  0  0  0  0  0  0  0  0  0
   19.9662   18.2028    2.8229 H   0  0  0  0  0  0  0  0  0  0  0  0
  2  1  2  0
  3  2  1  0
  4  3  2  0
  5  4  1  0
  6  5  2  0
  6  1  1  0
  8  7  1  0
  9  8  1  0
 10  1  1  0
 10  9  1  0
 11 10  1  0
 12 11  1  0
 12  7  1  0
 14  7  1  0
 14 13  1  0
 15 14  2  0
 16  5  1  0
 17 16  1  0
 18 16  1  0
 19 16  1  0
  2 20  1  0
  3 21  1  0
  4 22  1  0
  7 23  1  0
  8 24  1  0
  8 25  1  0
  9 26  1  0
  9 27  1  0
 11 28  1  0
 11 29  1  0
 12 30  1  0
 12 31  1  0
M  CHG  1  13  -1
M  END
$$$$
=
     RDKit          3D

 37 38  0  0  0  0  0  0  0  0999 V2000
   15.6690   14.3030    4.1240 N   0  0  0  0  0  0  0  0  0  0  0  0
   14.2940   14.0300    3.9460 C   0  0  0  0  0  0  0  0  0  0  0  0
   13.2660   14.7930    4.5140 C   0  0  0  0  0  0  0  0  0  0  0  0
   11.9220   14.4620    4.3030 C   0  0  0  0  0  0  0  0  0  0  0  0
   11.5860   13.3590    3.5230 C   0  0  0  0  0  0  0  0  0  0  0  0
   12.5930   12.5860    2.9530 C   0  0  0  0  0  0  0  0  0  0  0  0
   13.9330   12.9230    3.1650 C   0  0  0  0  0  0  0  0  0  0  0  0
   15.8990   15.6990    4.5850 C   0  0  0  0  0  0  0  0  0  0  0  0
   17.0540   15.5280    6.7550 O   0  0  0  0  0  0  0  0  0  0  0  0
   17.0700   15.8930    5.5760 C   0  0  0  0  0  0  0  0  0  0  0  0
   18.2220   16.4860    5.0410 N   0  0  0  0  0  0  0  0  0  0  0  0
   18.3970   16.8260    3.6240 C   0  0  0  0  0  0  0  0  0  0  0  0
   19.5820   17.7800    3.4260 C   0  0  0  0  0  0  0  0  0  0  0  0
   20.8270   17.2770    3.9350 O   0  0  0  0  0  0  0  0  0  0  0  0
   20.6800   16.3870    5.0520 C   0  0  0  0  0  0  0  0  0  0  0  0
   19.4120   16.6310    5.8750 C   0  0  0  0  0  0  0  0  0  0  0  0
   16.5010   13.9630    2.9240 C   0  0  0  0  0  0  0  0  0  0  0  0
   17.7210   13.0070    3.0570 C   0  0  0  0  0  0  0  0  0  0  0  0
   17.4680   11.7730    2.9220 O   0  0  0  0  0  0  0  0  0  0  0  0
   18.8410   13.5570    3.2940 O   0  0  0  0  0  1  0  0  0  0  0  0
   13.5182   15.6652    5.1350 H   0  0  0  0  0  0  0  0  0  0  0  0
   11.1289   15.0756    4.7551 H   0  0  0  0  0  0  0  0  0  0  0  0
   10.5298   13.0998    3.3581 H   0  0  0  0  0  0  0  0  0  0  0  0
   12.3352   11.7118    2.3371 H   0  0  0  0  0  0  0  0  0  0  0  0
   14.7215   12.3062    2.7091 H   0  0  0  0  0  0  0  0  0  0  0  0
   16.0999   16.3189    3.6988 H   0  0  0  0  0  0  0  0  0  0  0  0
   14.9904   15.9872    5.1340 H   0  0  0  0  0  0  0  0  0  0  0  0
   18.5795   15.9035    3.0533 H   0  0  0  0  0  0  0  0  0  0  0  0
   17.4835   17.3261    3.2698 H   0  0  0  0  0  0  0  0  0  0  0  0
   19.6991   17.9674    2.3484 H   0  0  0  0  0  0  0  0  0  0  0  0
   19.3526   18.6948    3.9921 H   0  0  0  0  0  0  0  0  0  0  0  0
   20.6533   15.3551    4.6719 H   0  0  0  0  0  0  0  0  0  0  0  0
   21.5349   16.5681    5.7201 H   0  0  0  0  0  0  0  0  0  0  0  0
   19.3685   15.9012    6.6969 H   0  0  0  0  0  0  0  0  0  0  0  0
   19.4412   17.6548    6.2762 H   0  0  0  0  0  0  0  0  0  0  0  0
   15.8221   13.5077    2.1880 H   0  0  0  0  0  0  0  0  0  0  0  0
   16.9665   14.9251    2.6639 H   0  0  0  0  0  0  0  0  0  0  0  0
  2  1  1  0
  3  2  2  0
  4  3  1  0
  5  4  2  0
  6  5  1  0
  7  6  2  0
  7  2  1  0
  8  1  1  0
 10  8  1  0
 10  9  2  0
 11 10  1  0
 12 11  1  0
 13 12  1  0
 14 13  1  0
 15 14  1  0
 16 15  1  0
 16 11  1  0
 17  1  1  0
 18 17  1  0
 19 18  2  0
 20 18  1  0
  3 21  1  0
  4 22  1  0
  5 23  1  0
  6 24  1  0
  7 25  1  0
  8 26  1  0
  8 27  1  0
 12 28  1  0
 12 29  1  0
 13 30  1  0
 13 31  1  0
 15 32  1  0
 15 33  1  0
 16 34  1  0
 16 35  1  0
 17 36  1  0
 17 37  1  0
M  CHG  1  20  -1
M  END
$$$$
=
     RDKit          3D

 62 65  0  0  0  0  0  0  0  0999 V2000
   25.3060   27.3650   15.9060 N   0  0  0  0  0  0  0  0  0  0  0  0
   26.4650   26.8220   16.3560 C   0  0  0  0  0  0  0  0  0  0  0  0
   26.6070   25.7350   16.8930 O   0  0  0  0  0  0  0  0  0  0  0  0
   24.0850   26.5860   15.6840 C   0  0  2  0  0  0  0  0  0  0  0  0
   23.8450   26.5560   14.1740 C   0  0  0  0  0  0  0  0  0  0  0  0
   24.7500   25.9870   13.2650 C   0  0  0  0  0  0  0  0  0  0  0  0
   24.4510   25.9250   11.9000 C   0  0  0  0  0  0  0  0  0  0  0  0
   23.2480   26.4400   11.4230 C   0  0  0  0  0  0  0  0  0  0  0  0
   22.3580   27.0440   12.3060 C   0  0  0  0  0  0  0  0  0  0  0  0
   22.6330   27.0680   13.6710 C   0  0  0  0  0  0  0  0  0  0  0  0
   21.1690   27.5090   11.8210 O   0  0  0  0  0  0  0  0  0  0  0  0
   20.0690   26.5700   11.8090 C   0  0  0  0  0  0  0  0  0  0  0  0
   20.3220   25.3180   12.6640 C   0  0  0  0  0  0  0  0  0  0  0  0
   19.6610   26.1790   10.3810 C   0  0  0  0  0  0  0  0  0  0  0  0
   18.9020   27.3510   12.4400 C   0  0  0  0  0  0  0  0  0  0  0  0
   22.9800   27.1950   16.5390 C   0  0  0  0  0  0  0  0  0  0  0  0
   22.5010   25.8140   18.3710 O   0  0  0  0  0  1  0  0  0  0  0  0
   23.1570   26.8310   18.0030 C   0  0  0  0  0  0  0  0  0  0  0  0
   23.9010   27.5950   18.6770 O   0  0  0  0  0  0  0  0  0  0  0  0
   27.4780   27.6790   16.0730 O   0  0  0  0  0  0  0  0  0  0  0  0
   27.7400   27.8820   14.6740 C   0  0  0  0  0  0  0  0  0  0  0  0
   29.0200   27.1740   14.2010 C   0  0  0  0  0  0  0  0  0  0  0  0
   28.7100   26.1080   13.1530 C   0  0  0  0  0  0  0  0  0  0  0  0
   28.1420   26.2780   11.9000 C   0  0  0  0  0  0  0  0  0  0  0  0
   27.9510   25.1470   11.1050 C   0  0  0  0  0  0  0  0  0  0  0  0
   28.3310   23.8750   11.5640 C   0  0  0  0  0  0  0  0  0  0  0  0
   28.9150   23.7120   12.8250 C   0  0  0  0  0  0  0  0  0  0  0  0
   29.1060   24.8340   13.6140 C   0  0  0  0  0  0  0  0  0  0  0  0
   29.6960   24.9730   14.9290 C   0  0  0  0  0  0  0  0  0  0  0  0
   29.6720   26.3360   15.2990 C   0  0  0  0  0  0  0  0  0  0  0  0
   30.2240   26.7660   16.4960 C   0  0  0  0  0  0  0  0  0  0  0  0
   30.7820   25.8100   17.3460 C   0  0  0  0  0  0  0  0  0  0  0  0
   30.7890   24.4510   16.9910 C   0  0  0  0  0  0  0  0  0  0  0  0
   30.2480   24.0250   15.7740 C   0  0  0  0  0  0  0  0  0  0  0  0
   25.2832   28.3760   15.7105 H   0  0  0  0  0  0  0  0  0  0  0  0
   24.1411   25.5342   16.0012 H   0  0  0  0  0  0  0  0  0  0  0  0
   25.7064   25.5847   13.6304 H   0  0  0  0  0  0  0  0  0  0  0  0
   25.1677   25.4684   11.2015 H   0  0  0  0  0  0  0  0  0  0  0  0
   23.0025   26.3696   10.3531 H   0  0  0  0  0  0  0  0  0  0  0  0
   21.8936   27.4926   14.3659 H   0  0  0  0  0  0  0  0  0  0  0  0
   20.2681   25.5848   13.7298 H   0  0  0  0  0  0  0  0  0  0  0  0
   19.5591   24.5587   12.4370 H   0  0  0  0  0  0  0  0  0  0  0  0
   21.3198   24.9145   12.4370 H   0  0  0  0  0  0  0  0  0  0  0  0
   18.8674   25.4184   10.4217 H   0  0  0  0  0  0  0  0  0  0  0  0
   19.2903   27.0677    9.8492 H   0  0  0  0  0  0  0  0  0  0  0  0
   20.5331   25.7708    9.8492 H   0  0  0  0  0  0  0  0  0  0  0  0
   18.9773   27.3006   13.5363 H   0  0  0  0  0  0  0  0  0  0  0  0
   18.9469   28.4016   12.1173 H   0  0  0  0  0  0  0  0  0  0  0  0
   17.9479   26.9088   12.1173 H   0  0  0  0  0  0  0  0  0  0  0  0
   23.0077   28.2897   16.4352 H   0  0  0  0  0  0  0  0  0  0  0  0
   22.0135   26.7980   16.1950 H   0  0  0  0  0  0  0  0  0  0  0  0
   26.8886   27.4926   14.0965 H   0  0  0  0  0  0  0  0  0  0  0  0
   27.8796   28.9615   14.5155 H   0  0  0  0  0  0  0  0  0  0  0  0
   29.6572   27.9970   13.8451 H   0  0  0  0  0  0  0  0  0  0  0  0
   27.8500   27.2764   11.5423 H   0  0  0  0  0  0  0  0  0  0  0  0
   27.4980   25.2528   10.1082 H   0  0  0  0  0  0  0  0  0  0  0  0
   28.1673   22.9956   10.9238 H   0  0  0  0  0  0  0  0  0  0  0  0
   29.2155   22.7157   13.1814 H   0  0  0  0  0  0  0  0  0  0  0  0
   30.2222   27.8318   16.7683 H   0  0  0  0  0  0  0  0  0  0  0  0
   31.2211   26.1242   18.3044 H   0  0  0  0  0  0  0  0  0  0  0  0
   31.2257   23.7123   17.6792 H   0  0  0  0  0  0  0  0  0  0  0  0
   30.2606   22.9612   15.4943 H   0  0  0  0  0  0  0  0  0  0  0  0
  2  1  1  0
  3  2  2  0
  4  1  1  0
  5  4  1  0
  6  5  2  0
  7  6  1  0
  8  7  2  0
  9  8  1  0
 10  9  2  0
 10  5  1  0
 11  9  1  0
 12 11  1  0
 13 12  1  0
 14 12  1  0
 15 12  1  0
 16  4  1  0
 18 17  1  0
 18 16  1  0
 19 18  2  0
 20  2  1  0
 21 20  1  0
 22 21  1  0
 23 22  1  0
 24 23  2  0
 25 24  1  0
 26 25  2  0
 27 26  1  0
 28 27  2  0
 28 23  1  0
 29 28  1  0
 30 29  2  0
 30 22  1  0
 31 30  1  0
 32 31  2  0
 33 32  1  0
 34 29  1  0
 34 33  2  0
  1 35  1  0
  4 36  1  1
  6 37  1  0
  7 38  1  0
  8 39  1  0
 10 40  1  0
 13 41  1  0
 13 42  1  0
 13 43  1  0
 14 44  1  0
 14 45  1  0
 14 46  1  0
 15 47  1  0
 15 48  1  0
 15 49  1  0
 16 50  1  0
 16 51  1  0
 21 52  1  0
 21 53  1  0
 22 54  1  0
 24 55  1  0
 25 56  1  0
 26 57  1  0
 27 58  1  0
 31 59  1  0
 32 60  1  0
 33 61  1  0
 34 62  1  0
M  CHG  1  17  -1
M  END
$$$$
=
     RDKit          3D

 39 40  0  0  0  0  0  0  0  0999 V2000
   19.4330   15.3940    3.1450 N   0  0  0  0  0  0  0  0  0  0  0  0
   18.9970   14.3910    3.9780 C   0  0  0  0  0  0  0  0  0  0  0  0
   19.1950   14.3720    5.1910 O   0  0  0  0  0  0  0  0  0  0  0  0
   19.8820   16.7220    3.6290 C   0  0  2  0  0  0  0  0  0  0  0  0
   20.1290   17.6700    2.3990 C   0  0  0  0  0  0  0  0  0  0  0  0
   21.2890   18.2020    2.3940 O   0  0  0  0  0  0  0  0  0  0  0  0
   19.1970   17.7740    1.5580 O   0  0  0  0  0  1  0  0  0  0  0  0
   21.1390   16.5360    4.4910 C   0  0  0  0  0  0  0  0  0  0  0  0
   20.1350   18.4780    5.7260 C   0  0  0  0  0  0  0  0  0  0  0  0
   21.2560   17.4330    5.7400 C   0  0  0  0  0  0  0  0  0  0  0  0
   22.6100   18.1360    5.8350 C   0  0  0  0  0  0  0  0  0  0  0  0
   18.2550   13.2800    3.2560 C   0  0  0  0  0  0  0  0  0  0  0  0
   16.7750   13.4160    3.3630 C   0  0  0  0  0  0  0  0  0  0  0  0
   16.2110   14.5400    3.9430 N   0  0  0  0  0  0  0  0  0  0  0  0
   14.9100   14.3440    3.8980 C   0  0  0  0  0  0  0  0  0  0  0  0
   14.5980   13.1160    3.3270 N   0  0  0  0  0  0  0  0  0  0  0  0
   15.7860   12.5210    3.0020 C   0  0  0  0  0  0  0  0  0  0  0  0
   13.2970   12.6490    3.1600 C   0  0  0  0  0  0  0  0  0  0  0  0
   12.2710   13.4150    3.5660 C   0  0  0  0  0  0  0  0  0  0  0  0
   12.5540   14.7100    4.1690 C   0  0  0  0  0  0  0  0  0  0  0  0
   13.8180   15.1520    4.3260 C   0  0  0  0  0  0  0  0  0  0  0  0
   19.4487   15.2136    2.1310 H   0  0  0  0  0  0  0  0  0  0  0  0
   19.1117   17.1956    4.2554 H   0  0  0  0  0  0  0  0  0  0  0  0
   21.1611   15.4892    4.8281 H   0  0  0  0  0  0  0  0  0  0  0  0
   21.9806   16.8258    3.8447 H   0  0  0  0  0  0  0  0  0  0  0  0
   19.8599   18.7345    6.7597 H   0  0  0  0  0  0  0  0  0  0  0  0
   20.4827   19.3817    5.2041 H   0  0  0  0  0  0  0  0  0  0  0  0
   19.2578   18.0678    5.2041 H   0  0  0  0  0  0  0  0  0  0  0  0
   21.1646   16.7809    6.6212 H   0  0  0  0  0  0  0  0  0  0  0  0
   22.8776   18.2749    6.8929 H   0  0  0  0  0  0  0  0  0  0  0  0
   23.3773   17.5224    5.3402 H   0  0  0  0  0  0  0  0  0  0  0  0
   22.5495   19.1166    5.3402 H   0  0  0  0  0  0  0  0  0  0  0  0
   18.5349   13.3026    2.1925 H   0  0  0  0  0  0  0  0  0  0  0  0
   18.5373   12.3281    3.7296 H   0  0  0  0  0  0  0  0  0  0  0  0
   15.9259   11.5301    2.5454 H   0  0  0  0  0  0  0  0  0  0  0  0
   13.1119   11.6662    2.7019 H   0  0  0  0  0  0  0  0  0  0  0  0
   11.2337   13.0696    3.4449 H   0  0  0  0  0  0  0  0  0  0  0  0
   11.7179   15.3416    4.5038 H   0  0  0  0  0  0  0  0  0  0  0  0
   14.0055   16.1345    4.7837 H   0  0  0  0  0  0  0  0  0  0  0  0
  2  1  1  0
  3  2  2  0
  4  1  1  0
  5  4  1  0
  6  5  2  0
  7  5  1  0
  8  4  1  0
 10  8  1  0
 10  9  1  0
 11 10  1  0
 12  2  1  0
 13 12  1  0
 14 13  1  0
 15 14  2  0
 16 15  1  0
 17 16  1  0
 17 13  2  0
 18 16  1  0
 19 18  2  0
 20 19  1  0
 21 20  2  0
 21 15  1  0
  1 22  1  0
  4 23  1  1
  8 24  1  0
  8 25  1  0
  9 26  1  0
  9 27  1  0
  9 28  1  0
 10 29  1  0
 11 30  1  0
 11 31  1  0
 11 32  1  0
 12 33  1  0
 12 34  1  0
 17 35  1  0
 18 36  1  0
 19 37  1  0
 20 38  1  0
 21 39  1  0
M  CHG  1   7  -1
M  END
$$$$
=
     RDKit          3D

 45 46  0  0  0  0  0  0  0  0999 V2000
    9.5070   12.3290    2.2880 C   0  0  0  0  0  0  0  0  0  0  0  0
   10.7220   11.6790    2.0610 C   0  0  0  0  0  0  0  0  0  0  0  0
   11.9010   12.1610    2.6430 C   0  0  0  0  0  0  0  0  0  0  0  0
   11.8900   13.3000    3.4570 C   0  0  0  0  0  0  0  0  0  0  0  0
   10.6830   13.9470    3.7000 C   0  0  0  0  0  0  0  0  0  0  0  0
    9.5040   13.4710    3.1010 C   0  0  0  0  0  0  0  0  0  0  0  0
    8.2460   14.1940    3.3800 C   0  0  0  0  0  0  0  0  0  0  0  0
    7.9400   15.1270    2.6400 O   0  0  0  0  0  0  0  0  0  0  0  0
    7.4530   13.7550    4.4440 N   0  0  0  0  0  0  0  0  0  0  0  0
    6.1190   14.3050    4.5870 C   0  0  0  0  0  0  0  0  0  0  0  0
    7.7830   12.6230    5.2990 C   0  0  0  0  0  0  0  0  0  0  0  0
   13.1230   13.7230    3.9730 N   0  0  0  0  0  0  0  0  0  0  0  0
   14.3870   13.4630    3.4920 C   0  0  0  0  0  0  0  0  0  0  0  0
   14.7090   12.8330    2.4940 O   0  0  0  0  0  0  0  0  0  0  0  0
   15.4160   14.0860    4.3590 C   0  0  1  0  0  0  0  0  0  0  0  0
   16.4360   14.9400    3.5680 C   0  0  1  0  0  0  0  0  0  0  0  0
   15.6540   15.5280    4.7210 C   0  0  0  0  0  0  0  0  0  0  0  0
   14.5800   16.5360    4.3990 C   0  0  0  0  0  0  0  0  0  0  0  0
   16.3890   15.8200    6.0050 C   0  0  0  0  0  0  0  0  0  0  0  0
   17.7490   14.2900    3.5680 C   0  0  0  0  0  0  0  0  0  0  0  0
   17.8370   13.0820    3.2070 O   0  0  0  0  0  0  0  0  0  0  0  0
   18.7080   15.0330    3.9640 O   0  0  0  0  0  1  0  0  0  0  0  0
    8.3630   10.8410    0.8360 C   0  0  0  0  0  0  0  0  0  0  0  0
    8.3180   11.9540    1.7200 O   0  0  0  0  0  0  0  0  0  0  0  0
   10.7531   10.7842    1.4220 H   0  0  0  0  0  0  0  0  0  0  0  0
   12.8501   11.6367    2.4578 H   0  0  0  0  0  0  0  0  0  0  0  0
   10.6513   14.8277    4.3583 H   0  0  0  0  0  0  0  0  0  0  0  0
    5.8762   14.4051    5.6552 H   0  0  0  0  0  0  0  0  0  0  0  0
    6.0767   15.2939    4.1071 H   0  0  0  0  0  0  0  0  0  0  0  0
    5.3920   13.6332    4.1071 H   0  0  0  0  0  0  0  0  0  0  0  0
    7.6957   12.9225    6.3538 H   0  0  0  0  0  0  0  0  0  0  0  0
    7.0890   11.7944    5.0944 H   0  0  0  0  0  0  0  0  0  0  0  0
    8.8135   12.2971    5.0944 H   0  0  0  0  0  0  0  0  0  0  0  0
   13.0776   14.3038    4.8224 H   0  0  0  0  0  0  0  0  0  0  0  0
   15.3186   13.2242    5.0357 H   0  0  0  0  0  0  0  0  0  0  0  0
   16.6501   15.4040    2.5939 H   0  0  0  0  0  0  0  0  0  0  0  0
   14.1573   16.9327    5.3339 H   0  0  0  0  0  0  0  0  0  0  0  0
   15.0142   17.3602    3.8141 H   0  0  0  0  0  0  0  0  0  0  0  0
   13.7849   16.0505    3.8141 H   0  0  0  0  0  0  0  0  0  0  0  0
   15.7471   15.5650    6.8611 H   0  0  0  0  0  0  0  0  0  0  0  0
   17.3096   15.2193    6.0452 H   0  0  0  0  0  0  0  0  0  0  0  0
   16.6464   16.8887    6.0452 H   0  0  0  0  0  0  0  0  0  0  0  0
    8.4006    9.9099    1.4204 H   0  0  0  0  0  0  0  0  0  0  0  0
    7.4642   10.8398    0.2019 H   0  0  0  0  0  0  0  0  0  0  0  0
    9.2590   10.9124    0.2019 H   0  0  0  0  0  0  0  0  0  0  0  0
  2  1  2  0
  3  2  1  0
  4  3  2  0
  5  4  1  0
  6  5  2  0
  6  1  1  0
  7  6  1  0
  8  7  2  0
  9  7  1  0
 10  9  1  0
 11  9  1  0
 12  4  1  0
 13 12  1  0
 14 13  2  0
 15 13  1  0
 16 15  1  0
 17 15  1  0
 17 16  1  0
 18 17  1  0
 19 17  1  0
 20 16  1  0
 21 20  2  0
 22 20  1  0
 24 23  1  0
 24  1  1  0
  2 25  1  0
  3 26  1  0
  5 27  1  0
 10 28  1  0
 10 29  1  0
 10 30  1  0
 11 31  1  0
 11 32  1  0
 11 33  1  0
 12 34  1  0
 15 35  1  1
 16 36  1  6
 18 37  1  0
 18 38  1  0
 18 39  1  0
 19 40  1  0
 19 41  1  0
 19 42  1  0
 23 43  1  0
 23 44  1  0
 23 45  1  0
M  CHG  1  22  -1
M  END
$$$$
=
     RDKit          3D

 36 36  0  0  0  0  0  0  0  0999 V2000
   18.0670   15.9720    3.8460 N   0  0  0  0  0  4  0  0  0  0  0  0
   18.4100   14.5430    3.3850 C   0  0  0  0  0  0  0  0  0  0  0  0
   17.2560   13.5570    3.6400 C   0  0  2  0  0  0  0  0  0  0  0  0
   17.4910   12.2490    2.8970 C   0  0  0  0  0  0  0  0  0  0  0  0
   16.0260   14.1200    3.1630 O   0  0  0  0  0  0  0  0  0  0  0  0
   15.6470   15.3070    3.8800 C   0  0  2  0  0  0  0  0  0  0  0  0
   16.7930   15.9620    4.6840 C   0  0  0  0  0  0  0  0  0  0  0  0
   14.4700   14.9700    4.7860 C   0  0  0  0  0  0  0  0  0  0  0  0
   19.2860   16.6600    4.6050 C   0  0  1  0  0  0  0  0  0  0  0  0
   18.7050   17.6900    5.5880 C   0  0  0  0  0  0  0  0  0  0  0  0
   20.2290   15.6890    5.4370 C   0  0  0  0  0  0  0  0  0  0  0  0
   21.3730   15.4850    4.9590 O   0  0  0  0  0  0  0  0  0  0  0  0
   19.6960   15.2510    6.5010 O   0  0  0  0  0  1  0  0  0  0  0  0
   19.5810   17.6200    2.1960 C   0  0  0  0  0  0  0  0  0  0  0  0
   20.1970   17.3750    3.5690 C   0  0  0  0  0  0  0  0  0  0  0  0
   17.8915   16.5490    3.0110 H   0  0  0  0  0  0  0  0  0  0  0  0
   18.6285   14.5614    2.3071 H   0  0  0  0  0  0  0  0  0  0  0  0
   19.2804   14.2011    3.9642 H   0  0  0  0  0  0  0  0  0  0  0  0
   17.2049   13.3660    4.7221 H   0  0  0  0  0  0  0  0  0  0  0  0
   17.6371   11.4359    3.6233 H   0  0  0  0  0  0  0  0  0  0  0  0
   16.6189   12.0242    2.2655 H   0  0  0  0  0  0  0  0  0  0  0  0
   18.3868   12.3419    2.2655 H   0  0  0  0  0  0  0  0  0  0  0  0
   15.3651   16.0630    3.1323 H   0  0  0  0  0  0  0  0  0  0  0  0
   16.5158   16.9951    4.9407 H   0  0  0  0  0  0  0  0  0  0  0  0
   16.9671   15.3870    5.6054 H   0  0  0  0  0  0  0  0  0  0  0  0
   14.7797   15.0587    5.8378 H   0  0  0  0  0  0  0  0  0  0  0  0
   13.6429   15.6674    4.5873 H   0  0  0  0  0  0  0  0  0  0  0  0
   14.1373   13.9405    4.5873 H   0  0  0  0  0  0  0  0  0  0  0  0
   18.8922   17.3582    6.6199 H   0  0  0  0  0  0  0  0  0  0  0  0
   19.1859   18.6656    5.4236 H   0  0  0  0  0  0  0  0  0  0  0  0
   17.6213   17.7830    5.4236 H   0  0  0  0  0  0  0  0  0  0  0  0
   18.5651   18.0241    2.3167 H   0  0  0  0  0  0  0  0  0  0  0  0
   20.1987   18.3409    1.6403 H   0  0  0  0  0  0  0  0  0  0  0  0
   19.5348   16.6718    1.6403 H   0  0  0  0  0  0  0  0  0  0  0  0
   21.0968   16.7579    3.4292 H   0  0  0  0  0  0  0  0  0  0  0  0
   20.3967   18.3725    3.9874 H   0  0  0  0  0  0  0  0  0  0  0  0
  2  1  1  0
  3  2  1  0
  4  3  1  0
  5  3  1  0
  6  5  1  0
  7  6  1  0
  7  1  1  0
  8  6  1  0
  9  1  1  0
 10  9  1  0
  9 11  1  1
 12 11  2  0
 13 11  1  0
 15 14  1  0
 15  9  1  0
  1 16  1  0
  2 17  1  0
  2 18  1  0
  3 19  1  1
  4 20  1  0
  4 21  1  0
  4 22  1  0
  6 23  1  6
  7 24  1  0
  7 25  1  0
  8 26  1  0
  8 27  1  0
  8 28  1  0
 10 29  1  0
 10 30  1  0
 10 31  1  0
 14 32  1  0
 14 33  1  0
 14 34  1  0
 15 35  1  0
 15 36  1  0
M  CHG  2   1   1  13  -1
M  END
$$$$
=
     RDKit          3D

 19 20  0  0  0  0  0  0  0  0999 V2000
   20.0480   16.1190    5.0220 C   0  0  0  0  0  0  0  0  0  0  0  0
   19.9710   16.5220    3.7350 N   0  0  0  0  0  0  0  0  0  0  0  0
   18.7020   16.1270    3.3380 O   0  0  0  0  0  0  0  0  0  0  0  0
   18.1130   15.5180    4.4100 C   0  0  0  0  0  0  0  0  0  0  0  0
   18.8870   15.4850    5.4650 N   0  0  0  0  0  0  0  0  0  0  0  0
   16.7580   15.0220    4.2040 C   0  0  0  0  0  0  0  0  0  0  0  0
   15.6450   15.6830    4.7650 C   0  0  0  0  0  0  0  0  0  0  0  0
   14.3420   15.2080    4.5690 C   0  0  0  0  0  0  0  0  0  0  0  0
   14.1320   14.0630    3.8070 C   0  0  0  0  0  0  0  0  0  0  0  0
   15.2220   13.4050    3.2500 C   0  0  0  0  0  0  0  0  0  0  0  0
   16.5210   13.8740    3.4420 C   0  0  0  0  0  0  0  0  0  0  0  0
   17.5300   13.1930    2.8780 F   0  0  0  0  0  0  0  0  0  0  0  0
   15.0060   12.3030    2.5170 F   0  0  0  0  0  0  0  0  0  0  0  0
   21.3780   15.8090    7.1040 O   0  0  0  0  0  1  0  0  0  0  0  0
   21.3690   16.3560    5.9530 C   0  0  0  0  0  0  0  0  0  0  0  0
   22.3030   17.0740    5.4640 O   0  0  0  0  0  0  0  0  0  0  0  0
   15.8036   16.5891    5.3681 H   0  0  0  0  0  0  0  0  0  0  0  0
   13.4880   15.7382    5.0158 H   0  0  0  0  0  0  0  0  0  0  0  0
   13.1126   13.6821    3.6469 H   0  0  0  0  0  0  0  0  0  0  0  0
  2  1  2  0
  3  2  1  0
  4  3  1  0
  5  4  2  0
  5  1  1  0
  6  4  1  0
  7  6  2  0
  8  7  1  0
  9  8  2  0
 10  9  1  0
 11 10  2  0
 11  6  1  0
 12 11  1  0
 13 10  1  0
 15  1  1  0
 15 14  1  0
 16 15  2  0
  7 17  1  0
  8 18  1  0
  9 19  1  0
M  CHG  1  14  -1
M  END
$$$$
=
     RDKit          3D

 42 44  0  0  0  0  0  0  0  0999 V2000
   15.7860   11.9710    2.3330 O   0  0  0  0  0  0  0  0  0  0  0  0
   15.4960   12.8830    3.1140 C   0  0  0  0  0  0  0  0  0  0  0  0
   16.4550   13.7900    3.5490 N   0  0  0  0  0  0  0  0  0  0  0  0
   17.8450   13.5700    3.1450 C   0  0  0  0  0  0  0  0  0  0  0  0
   18.8350   14.2110    4.1130 C   0  0  0  0  0  0  0  0  0  0  0  0
   18.6130   15.7450    4.2580 C   0  0  0  0  0  0  0  0  0  0  0  0
   17.1640   16.1300    3.8850 C   0  0  0  0  0  0  0  0  0  0  0  0
   16.1820   15.0330    4.2820 C   0  0  0  0  0  0  0  0  0  0  0  0
   14.0660   13.0250    3.6460 C   0  0  2  0  0  0  0  0  0  0  0  0
   13.0350   12.5660    2.6060 C   0  0  0  0  0  0  0  0  0  0  0  0
   11.6130   12.6390    3.1680 C   0  0  0  0  0  0  0  0  0  0  0  0
   11.3460   13.8930    3.9480 C   0  0  0  0  0  0  0  0  0  0  0  0
   12.3170   14.7360    4.3300 C   0  0  0  0  0  0  0  0  0  0  0  0
   13.7730   14.4870    4.0420 C   0  0  0  0  0  0  0  0  0  0  0  0
   19.5260   16.5700    3.4560 N   0  0  0  0  0  0  0  0  0  0  0  0
   19.3680   16.9480    2.1470 C   0  0  0  0  0  0  0  0  0  0  0  0
   20.2840   17.8100    1.7620 N   0  0  0  0  0  0  0  0  0  0  0  0
   21.0740   18.0000    2.8630 C   0  0  0  0  0  0  0  0  0  0  0  0
   20.6110   17.2690    3.9300 C   0  0  0  0  0  0  0  0  0  0  0  0
   18.9270   16.0060    5.7610 C   0  0  0  0  0  0  0  0  0  0  0  0
   19.6050   15.1170    6.3520 O   0  0  0  0  0  0  0  0  0  0  0  0
   18.4420   17.0710    6.2480 O   0  0  0  0  0  1  0  0  0  0  0  0
   18.0361   12.4873    3.1082 H   0  0  0  0  0  0  0  0  0  0  0  0
   17.9877   14.0355    2.1586 H   0  0  0  0  0  0  0  0  0  0  0  0
   18.7174   13.7419    5.1010 H   0  0  0  0  0  0  0  0  0  0  0  0
   19.8469   14.0546    3.7110 H   0  0  0  0  0  0  0  0  0  0  0  0
   16.8940   17.0595    4.4076 H   0  0  0  0  0  0  0  0  0  0  0  0
   17.1100   16.2679    2.7950 H   0  0  0  0  0  0  0  0  0  0  0  0
   16.2740   14.8415    5.3613 H   0  0  0  0  0  0  0  0  0  0  0  0
   15.1640   15.3685    4.0349 H   0  0  0  0  0  0  0  0  0  0  0  0
   13.9833   12.3819    4.5346 H   0  0  0  0  0  0  0  0  0  0  0  0
   13.1048   13.2150    1.7206 H   0  0  0  0  0  0  0  0  0  0  0  0
   13.2510   11.5211    2.3384 H   0  0  0  0  0  0  0  0  0  0  0  0
   10.9032   12.5921    2.3289 H   0  0  0  0  0  0  0  0  0  0  0  0
   11.4929   11.7930    3.8607 H   0  0  0  0  0  0  0  0  0  0  0  0
   10.3069   14.1317    4.2188 H   0  0  0  0  0  0  0  0  0  0  0  0
   12.0371   15.6483    4.8771 H   0  0  0  0  0  0  0  0  0  0  0  0
   14.0845   15.1434    3.2161 H   0  0  0  0  0  0  0  0  0  0  0  0
   14.3324   14.6969    4.9656 H   0  0  0  0  0  0  0  0  0  0  0  0
   18.5665   16.5730    1.4935 H   0  0  0  0  0  0  0  0  0  0  0  0
   21.9606   18.6506    2.8901 H   0  0  0  0  0  0  0  0  0  0  0  0
   21.0222   17.2474    4.9500 H   0  0  0  0  0  0  0  0  0  0  0  0
  2  1  2  0
  3  2  1  0
  4  3  1  0
  5  4  1  0
  6  5  1  0
  7  6  1  0
  8  7  1  0
  8  3  1  0
  9  2  1  0
 10  9  1  0
 11 10  1  0
 12 11  1  0
 13 12  2  0
 14 13  1  0
 14  9  1  0
 15  6  1  0
 16 15  1  0
 17 16  2  0
 18 17  1  0
 19 18  2  0
 19 15  1  0
 20  6  1  0
 21 20  2  0
 22 20  1  0
  4 23  1  0
  4 24  1  0
  5 25  1  0
  5 26  1  0
  7 27  1  0
  7 28  1  0
  8 29  1  0
  8 30  1  0
  9 31  1  1
 10 32  1  0
 10 33  1  0
 11 34  1  0
 11 35  1  0
 12 36  1  0
 13 37  1  0
 14 38  1  0
 14 39  1  0
 16 40  1  0
 18 41  1  0
 19 42  1  0
M  CHG  1  22  -1
M  END
$$$$
=
     RDKit          3D

 51 52  0  0  0  0  0  0  0  0999 V2000
   25.8380   26.1720   16.7540 O   0  0  0  0  0  0  0  0  0  0  0  0
   26.0090   27.0480   15.9160 C   0  0  0  0  0  0  0  0  0  0  0  0
   26.9570   28.0400   16.0630 N   0  0  0  0  0  0  0  0  0  0  0  0
   27.7250   28.0910   17.3010 C   0  0  0  0  0  0  0  0  0  0  0  0
   28.7250   29.2520   17.3460 C   0  0  0  0  0  0  0  0  0  0  0  0
   29.5490   29.3220   16.0730 N   0  0  0  0  0  4  0  0  0  0  0  0
   28.6770   29.2770   14.8030 C   0  0  0  0  0  0  0  0  0  0  0  0
   27.1780   29.1290   15.1060 C   0  0  0  0  0  0  0  0  0  0  0  0
   30.7570   28.4010   15.9910 C   0  0  0  0  0  0  0  0  0  0  0  0
   30.4440   26.8900   15.7970 C   0  0  0  0  0  0  0  0  0  0  0  0
   30.7270   26.3580   14.4810 O   0  0  0  0  0  0  0  0  0  0  0  0
   29.6460   25.6790   13.9870 C   0  0  0  0  0  0  0  0  0  0  0  0
   29.4670   24.3260   14.2690 C   0  0  0  0  0  0  0  0  0  0  0  0
   28.7380   23.5600   13.3710 C   0  0  0  0  0  0  0  0  0  0  0  0
   28.1880   24.1750   12.2350 C   0  0  0  0  0  0  0  0  0  0  0  0
   28.1440   25.5730   12.1310 C   0  0  0  0  0  0  0  0  0  0  0  0
   28.8810   26.3370   13.0240 C   0  0  0  0  0  0  0  0  0  0  0  0
   28.0150   23.3660   10.9920 C   0  0  0  0  0  0  0  0  0  0  0  0
   26.9240   23.6320   10.3870 O   0  0  0  0  0  0  0  0  0  0  0  0
   28.8710   22.4860   10.7220 O   0  0  0  0  0  1  0  0  0  0  0  0
   25.3280   27.1560   14.7510 O   0  0  0  0  0  0  0  0  0  0  0  0
   24.5440   26.0500   14.2340 C   0  0  0  0  0  0  0  0  0  0  0  0
   24.3420   26.3800   12.7470 C   0  0  0  0  0  0  0  0  0  0  0  0
   25.3090   24.7270   14.3430 C   0  0  0  0  0  0  0  0  0  0  0  0
   23.1700   25.9770   14.9090 C   0  0  0  0  0  0  0  0  0  0  0  0
   27.0247   28.2004   18.1422 H   0  0  0  0  0  0  0  0  0  0  0  0
   28.3050   27.1584   17.3636 H   0  0  0  0  0  0  0  0  0  0  0  0
   28.1728   30.1956   17.4674 H   0  0  0  0  0  0  0  0  0  0  0  0
   29.4082   29.0882   18.1924 H   0  0  0  0  0  0  0  0  0  0  0  0
   29.9804   30.2557   16.1270 H   0  0  0  0  0  0  0  0  0  0  0  0
   28.8300   30.2096   14.2401 H   0  0  0  0  0  0  0  0  0  0  0  0
   28.9838   28.3924   14.2257 H   0  0  0  0  0  0  0  0  0  0  0  0
   26.6394   28.9069   14.1729 H   0  0  0  0  0  0  0  0  0  0  0  0
   26.8066   30.0685   15.5412 H   0  0  0  0  0  0  0  0  0  0  0  0
   31.3748   28.7294   15.1422 H   0  0  0  0  0  0  0  0  0  0  0  0
   31.2592   28.4793   16.9665 H   0  0  0  0  0  0  0  0  0  0  0  0
   31.0414   26.3239   16.5268 H   0  0  0  0  0  0  0  0  0  0  0  0
   29.3578   26.7867   15.9368 H   0  0  0  0  0  0  0  0  0  0  0  0
   29.8922   23.8776   15.1790 H   0  0  0  0  0  0  0  0  0  0  0  0
   28.5927   22.4839   13.5469 H   0  0  0  0  0  0  0  0  0  0  0  0
   27.5344   26.0562   11.3532 H   0  0  0  0  0  0  0  0  0  0  0  0
   28.8626   27.4357   12.9739 H   0  0  0  0  0  0  0  0  0  0  0  0
   23.7698   27.3148   12.6533 H   0  0  0  0  0  0  0  0  0  0  0  0
   25.3218   26.4996   12.2616 H   0  0  0  0  0  0  0  0  0  0  0  0
   23.7898   25.5618   12.2616 H   0  0  0  0  0  0  0  0  0  0  0  0
   25.4551   24.4743   15.4035 H   0  0  0  0  0  0  0  0  0  0  0  0
   24.7330   23.9289   13.8519 H   0  0  0  0  0  0  0  0  0  0  0  0
   26.2881   24.8280   13.8519 H   0  0  0  0  0  0  0  0  0  0  0  0
   23.2974   25.9838   16.0016 H   0  0  0  0  0  0  0  0  0  0  0  0
   22.5656   26.8443   14.6049 H   0  0  0  0  0  0  0  0  0  0  0  0
   22.6609   25.0505   14.6049 H   0  0  0  0  0  0  0  0  0  0  0  0
  2  1  2  0
  3  2  1  0
  4  3  1  0
  5  4  1  0
  6  5  1  0
  7  6  1  0
  8  3  1  0
  8  7  1  0
  9  6  1  0
 10  9  1  0
 11 10  1  0
 12 11  1  0
 13 12  2  0
 14 13  1  0
 15 14  2  0
 16 15  1  0
 17 16  2  0
 17 12  1  0
 18 15  1  0
 19 18  2  0
 20 18  1  0
 21  2  1  0
 22 21  1  0
 23 22  1  0
 24 22  1  0
 25 22  1  0
  4 26  1  0
  4 27  1  0
  5 28  1  0
  5 29  1  0
  6 30  1  0
  7 31  1  0
  7 32  1  0
  8 33  1  0
  8 34  1  0
  9 35  1  0
  9 36  1  0
 10 37  1  0
 10 38  1  0
 13 39  1  0
 14 40  1  0
 16 41  1  0
 17 42  1  0
 23 43  1  0
 23 44  1  0
 23 45  1  0
 24 46  1  0
 24 47  1  0
 24 48  1  0
 25 49  1  0
 25 50  1  0
 25 51  1  0
M  CHG  2   6   1  20  -1
M  END
$$$$
=
     RDKit          3D

 29 30  0  0  0  0  0  0  0  0999 V2000
   18.8560   15.7070    5.8200 C   0  0  2  0  0  0  0  0  0  0  0  0
   19.3610   14.6210    4.9990 N   0  0  0  0  0  0  0  0  0  0  0  0
   18.5270   14.3170    3.9530 C   0  0  0  0  0  0  0  0  0  0  0  0
   18.7240   13.4000    3.1720 O   0  0  0  0  0  0  0  0  0  0  0  0
   17.4890   15.1950    3.9620 N   0  0  0  0  0  0  0  0  0  0  0  0
   17.5940   16.0640    5.0190 C   0  0  0  0  0  0  0  0  0  0  0  0
   16.7900   16.9520    5.2700 O   0  0  0  0  0  0  0  0  0  0  0  0
   19.8520   16.8390    5.8880 C   0  0  0  0  0  0  0  0  0  0  0  0
   22.0160   16.4340    5.0830 O   0  0  0  0  0  1  0  0  0  0  0  0
   21.2560   16.2840    6.0780 C   0  0  0  0  0  0  0  0  0  0  0  0
   21.4690   15.6950    7.1740 O   0  0  0  0  0  0  0  0  0  0  0  0
   16.4140   15.2020    2.9980 C   0  0  0  0  0  0  0  0  0  0  0  0
   15.2420   14.3520    3.4270 C   0  0  0  0  0  0  0  0  0  0  0  0
   15.2500   12.9600    3.2440 C   0  0  0  0  0  0  0  0  0  0  0  0
   14.1570   12.1840    3.6420 C   0  0  0  0  0  0  0  0  0  0  0  0
   13.0480   12.7860    4.2340 C   0  0  0  0  0  0  0  0  0  0  0  0
   13.0340   14.1650    4.4320 C   0  0  0  0  0  0  0  0  0  0  0  0
   14.1260   14.9330    4.0330 C   0  0  0  0  0  0  0  0  0  0  0  0
   14.0920   16.2540    4.2570 F   0  0  0  0  0  0  0  0  0  0  0  0
   18.6667   15.4691    6.8772 H   0  0  0  0  0  0  0  0  0  0  0  0
   20.2489   14.1320    5.1821 H   0  0  0  0  0  0  0  0  0  0  0  0
   19.8118   17.4166    4.9527 H   0  0  0  0  0  0  0  0  0  0  0  0
   19.6022   17.4901    6.7387 H   0  0  0  0  0  0  0  0  0  0  0  0
   16.0677   16.2375    2.8644 H   0  0  0  0  0  0  0  0  0  0  0  0
   16.8053   14.7801    2.0605 H   0  0  0  0  0  0  0  0  0  0  0  0
   16.1237   12.4756    2.7835 H   0  0  0  0  0  0  0  0  0  0  0  0
   14.1724   11.0950    3.4874 H   0  0  0  0  0  0  0  0  0  0  0  0
   12.1874   12.1748    4.5436 H   0  0  0  0  0  0  0  0  0  0  0  0
   12.1635   14.6460    4.9019 H   0  0  0  0  0  0  0  0  0  0  0  0
  2  1  1  0
  3  2  1  0
  4  3  2  0
  5  3  1  0
  6  5  1  0
  6  1  1  0
  7  6  2  0
  8  1  1  0
 10  8  1  0
 10  9  1  0
 11 10  2  0
 12  5  1  0
 13 12  1  0
 14 13  2  0
 15 14  1  0
 16 15  2  0
 17 16  1  0
 18 17  2  0
 18 13  1  0
 19 18  1  0
  1 20  1  1
  2 21  1  0
  8 22  1  0
  8 23  1  0
 12 24  1  0
 12 25  1  0
 14 26  1  0
 15 27  1  0
 16 28  1  0
 17 29  1  0
M  CHG  1   9  -1
M  END
$$$$
=
     RDKit          3D

 38 39  0  0  0  0  0  0  0  0999 V2000
   17.0280   14.2970    3.4620 C   0  0  0  0  0  0  0  0  0  0  0  0
   15.6460   14.2450    3.6700 C   0  0  0  0  0  0  0  0  0  0  0  0
   14.9950   15.2140    4.4530 C   0  0  0  0  0  0  0  0  0  0  0  0
   15.7460   16.2520    5.0180 C   0  0  0  0  0  0  0  0  0  0  0  0
   17.1230   16.3210    4.8120 C   0  0  0  0  0  0  0  0  0  0  0  0
   17.7510   15.3620    4.0190 C   0  0  0  0  0  0  0  0  0  0  0  0
   17.8850   12.0860    3.2900 C   0  0  0  0  0  0  0  0  0  0  0  0
   17.7490   13.3870    2.7310 O   0  0  0  0  0  0  0  0  0  0  0  0
   13.5350   15.1300    4.6020 C   0  0  0  0  0  0  0  0  0  0  0  0
   12.8020   14.0230    4.4090 C   0  0  0  0  0  0  0  0  0  0  0  0
   11.2820   14.0160    4.5790 C   0  0  0  0  0  0  0  0  0  0  0  0
   10.6020   14.4030    3.5890 O   0  0  0  0  0  0  0  0  0  0  0  0
   10.9010   13.6130    5.7160 O   0  0  0  0  0  1  0  0  0  0  0  0
   19.1100   15.4690    3.8540 O   0  0  0  0  0  0  0  0  0  0  0  0
   19.5420   16.7960    4.1800 C   0  0  0  0  0  0  0  0  0  0  0  0
   20.6580   16.7510    5.1620 C   0  0  0  0  0  0  0  0  0  0  0  0
   21.7940   17.5980    5.2610 C   0  0  0  0  0  0  0  0  0  0  0  0
   22.1510   18.7600    4.4130 C   0  0  0  0  0  0  0  0  0  0  0  0
   22.5940   17.2320    6.2700 N   0  0  0  0  0  0  0  0  0  0  0  0
   21.9790   16.1440    6.8610 O   0  0  0  0  0  0  0  0  0  0  0  0
   20.8260   15.8610    6.2010 C   0  0  0  0  0  0  0  0  0  0  0  0
   20.0290   14.7290    6.7070 C   0  0  0  0  0  0  0  0  0  0  0  0
   15.0597   13.4336    3.2140 H   0  0  0  0  0  0  0  0  0  0  0  0
   15.2460   17.0183    5.6286 H   0  0  0  0  0  0  0  0  0  0  0  0
   17.7111   17.1283    5.2730 H   0  0  0  0  0  0  0  0  0  0  0  0
   17.8777   12.1560    4.3877 H   0  0  0  0  0  0  0  0  0  0  0  0
   17.0480   11.4546    2.9573 H   0  0  0  0  0  0  0  0  0  0  0  0
   18.8345   11.6414    2.9573 H   0  0  0  0  0  0  0  0  0  0  0  0
   13.0017   16.0465    4.8946 H   0  0  0  0  0  0  0  0  0  0  0  0
   13.3101   13.0913    4.1195 H   0  0  0  0  0  0  0  0  0  0  0  0
   19.8847   17.3008    3.2647 H   0  0  0  0  0  0  0  0  0  0  0  0
   18.6992   17.3472    4.6225 H   0  0  0  0  0  0  0  0  0  0  0  0
   22.4136   19.6147    5.0538 H   0  0  0  0  0  0  0  0  0  0  0  0
   23.0107   18.5001    3.7779 H   0  0  0  0  0  0  0  0  0  0  0  0
   21.2936   19.0276    3.7779 H   0  0  0  0  0  0  0  0  0  0  0  0
   20.0357   14.7385    7.8069 H   0  0  0  0  0  0  0  0  0  0  0  0
   18.9939   14.8189    6.3458 H   0  0  0  0  0  0  0  0  0  0  0  0
   20.4626   13.7848    6.3458 H   0  0  0  0  0  0  0  0  0  0  0  0
  2  1  2  0
  3  2  1  0
  4  3  2  0
  5  4  1  0
  6  5  2  0
  6  1  1  0
  8  7  1  0
  8  1  1  0
  9  3  1  0
 10  9  2  0
 11 10  1  0
 12 11  2  0
 13 11  1  0
 14  6  1  0
 15 14  1  0
 16 15  1  0
 17 16  1  0
 18 17  1  0
 19 17  2  0
 20 19  1  0
 21 16  2  0
 21 20  1  0
 22 21  1  0
  2 23  1  0
  4 24  1  0
  5 25  1  0
  7 26  1  0
  7 27  1  0
  7 28  1  0
  9 29  1  0
 10 30  1  0
 15 31  1  0
 15 32  1  0
 18 33  1  0
 18 34  1  0
 18 35  1  0
 22 36  1  0
 22 37  1  0
 22 38  1  0
M  CHG  1  13  -1
M  END
$$$$
=
     RDKit          3D

 43 44  0  0  0  0  0  0  0  0999 V2000
   17.3180   14.4960    3.6550 C   0  0  2  0  0  0  0  0  0  0  0  0
   19.4770   15.8900    3.8610 C   0  0  0  0  0  0  0  0  0  0  0  0
   20.5590   16.3580    4.6150 C   0  0  0  0  0  0  0  0  0  0  0  0
   20.6720   16.0360    5.9670 C   0  0  0  0  0  0  0  0  0  0  0  0
   19.7010   15.2280    6.5570 C   0  0  0  0  0  0  0  0  0  0  0  0
   18.6320   14.7410    5.7940 C   0  0  0  0  0  0  0  0  0  0  0  0
   18.5080   15.0500    4.4280 C   0  0  0  0  0  0  0  0  0  0  0  0
   19.8780   17.5540    2.3260 C   0  0  0  0  0  0  0  0  0  0  0  0
   19.4170   16.2150    2.5290 O   0  0  0  0  0  0  0  0  0  0  0  0
   21.7680   16.5650    6.5960 O   0  0  0  0  0  0  0  0  0  0  0  0
   22.4690   17.5850    5.8960 C   0  0  0  0  0  0  0  0  0  0  0  0
   16.1240   14.4420    4.5090 N   0  0  0  0  0  0  0  0  0  0  0  0
   15.0290   15.1780    4.1830 C   0  0  0  0  0  0  0  0  0  0  0  0
   15.0210   16.2240    3.5470 O   0  0  0  0  0  0  0  0  0  0  0  0
   13.9250   14.5760    4.6920 O   0  0  0  0  0  0  0  0  0  0  0  0
   13.6940   13.2750    4.1530 C   0  0  0  0  0  0  0  0  0  0  0  0
   12.2730   13.1990    3.6480 C   0  0  0  0  0  0  0  0  0  0  0  0
   11.2880   14.0460    4.1800 C   0  0  0  0  0  0  0  0  0  0  0  0
    9.9680   13.9680    3.7360 C   0  0  0  0  0  0  0  0  0  0  0  0
    9.6150   13.0390    2.7580 C   0  0  0  0  0  0  0  0  0  0  0  0
   10.5830   12.1880    2.2260 C   0  0  0  0  0  0  0  0  0  0  0  0
   11.9060   12.2650    2.6690 C   0  0  0  0  0  0  0  0  0  0  0  0
   17.7130   13.1120    3.0180 C   0  0  0  0  0  0  0  0  0  0  0  0
   18.9510   12.8260    3.0500 O   0  0  0  0  0  0  0  0  0  0  0  0
   16.7550   12.4280    2.5470 O   0  0  0  0  0  1  0  0  0  0  0  0
   17.0518   15.1665    2.8246 H   0  0  0  0  0  0  0  0  0  0  0  0
   21.3264   16.9848    4.1374 H   0  0  0  0  0  0  0  0  0  0  0  0
   19.7746   14.9723    7.6243 H   0  0  0  0  0  0  0  0  0  0  0  0
   17.8741   14.1039    6.2733 H   0  0  0  0  0  0  0  0  0  0  0  0
   20.0441   18.0363    3.3006 H   0  0  0  0  0  0  0  0  0  0  0  0
   20.8214   17.5352    1.7607 H   0  0  0  0  0  0  0  0  0  0  0  0
   19.1230   18.1200    1.7607 H   0  0  0  0  0  0  0  0  0  0  0  0
   22.9389   18.2688    6.6182 H   0  0  0  0  0  0  0  0  0  0  0  0
   23.2454   17.1289    5.2641 H   0  0  0  0  0  0  0  0  0  0  0  0
   21.7650   18.1463    5.2641 H   0  0  0  0  0  0  0  0  0  0  0  0
   16.1167   13.8490    5.3511 H   0  0  0  0  0  0  0  0  0  0  0  0
   14.3912   13.0905    3.3224 H   0  0  0  0  0  0  0  0  0  0  0  0
   13.8532   12.5154    4.9325 H   0  0  0  0  0  0  0  0  0  0  0  0
   11.5598   14.7783    4.9545 H   0  0  0  0  0  0  0  0  0  0  0  0
    9.2054   14.6395    4.1575 H   0  0  0  0  0  0  0  0  0  0  0  0
    8.5744   12.9775    2.4067 H   0  0  0  0  0  0  0  0  0  0  0  0
   10.3044   11.4540    1.4555 H   0  0  0  0  0  0  0  0  0  0  0  0
   12.6641   11.5887    2.2471 H   0  0  0  0  0  0  0  0  0  0  0  0
  3  2  2  0
  4  3  1  0
  5  4  2  0
  6  5  1  0
  7  2  1  0
  7  1  1  0
  7  6  2  0
  9  2  1  0
  9  8  1  0
 10  4  1  0
 11 10  1  0
 12  1  1  0
 13 12  1  0
 14 13  2  0
 15 13  1  0
 16 15  1  0
 17 16  1  0
 18 17  2  0
 19 18  1  0
 20 19  2  0
 21 20  1  0
 22 21  2  0
 22 17  1  0
 23  1  1  0
 24 23  2  0
 25 23  1  0
  1 26  1  6
  3 27  1  0
  5 28  1  0
  6 29  1  0
  8 30  1  0
  8 31  1  0
  8 32  1  0
 11 33  1  0
 11 34  1  0
 11 35  1  0
 12 36  1  0
 16 37  1  0
 16 38  1  0
 18 39  1  0
 19 40  1  0
 20 41  1  0
 21 42  1  0
 22 43  1  0
M  CHG  1  25  -1
M  END
$$$$
=
     RDKit          3D

 20 21  0  0  0  0  0  0  0  0999 V2000
   19.5020   16.1940    4.9080 C   0  0  0  0  0  0  0  0  0  0  0  0
   19.9850   15.2140    4.0130 C   0  0  0  0  0  0  0  0  0  0  0  0
   19.0160   14.5190    3.4090 N   0  0  0  0  0  0  0  0  0  0  0  0
   17.8690   15.0110    3.9430 N   0  0  0  0  0  0  0  0  0  0  0  0
   18.1320   16.0390    4.8530 C   0  0  0  0  0  0  0  0  0  0  0  0
   17.0220   16.6610    5.4940 C   0  0  0  0  0  0  0  0  0  0  0  0
   15.7710   16.2560    5.2050 C   0  0  0  0  0  0  0  0  0  0  0  0
   15.5200   15.1900    4.2500 C   0  0  0  0  0  0  0  0  0  0  0  0
   16.5660   14.6000    3.6510 C   0  0  0  0  0  0  0  0  0  0  0  0
   20.3040   17.1680    5.7030 C   0  0  0  0  0  0  0  0  0  0  0  0
   21.1110   15.5020    7.1770 O   0  0  0  0  0  1  0  0  0  0  0  0
   21.4470   16.4900    6.4620 C   0  0  0  0  0  0  0  0  0  0  0  0
   22.5870   17.0220    6.3180 O   0  0  0  0  0  0  0  0  0  0  0  0
   21.0556   15.0394    3.8305 H   0  0  0  0  0  0  0  0  0  0  0  0
   17.1865   17.4689    6.2221 H   0  0  0  0  0  0  0  0  0  0  0  0
   14.9197   16.7431    5.7031 H   0  0  0  0  0  0  0  0  0  0  0  0
   14.4917   14.8725    4.0223 H   0  0  0  0  0  0  0  0  0  0  0  0
   16.3968   13.7893    2.9270 H   0  0  0  0  0  0  0  0  0  0  0  0
   20.7281   17.9189    5.0202 H   0  0  0  0  0  0  0  0  0  0  0  0
   19.6355   17.6328    6.4426 H   0  0  0  0  0  0  0  0  0  0  0  0
  2  1  1  0
  3  2  2  0
  4  3  1  0
  5  4  1  0
  5  1  2  0
  6  5  1  0
  7  6  2  0
  8  7  1  0
  9  8  2  0
  9  4  1  0
 10  1  1  0
 12 11  1  0
 12 10  1  0
 13 12  2  0
  2 14  1  0
  6 15  1  0
  7 16  1  0
  8 17  1  0
  9 18  1  0
 10 19  1  0
 10 20  1  0
M  CHG  1  11  -1
M  END
$$$$
=
     RDKit          3D

 20 20  0  0  0  0  0  0  0  0999 V2000
   15.0420   14.7830    4.7500 C   0  0  0  0  0  0  0  0  0  0  0  0
   15.5120   15.9240    5.4020 C   0  0  0  0  0  0  0  0  0  0  0  0
   16.7910   16.4100    5.1320 C   0  0  0  0  0  0  0  0  0  0  0  0
   17.6260   15.7770    4.1940 C   0  0  0  0  0  0  0  0  0  0  0  0
   17.1240   14.6400    3.5190 C   0  0  0  0  0  0  0  0  0  0  0  0
   15.8300   14.1440    3.7770 C   0  0  0  0  0  0  0  0  0  0  0  0
   15.1970   12.7020    2.8490 S   0  0  0  0  0  4  0  0  0  0  0  0
   16.2960   12.1320    1.9840 O   0  0  0  0  0  0  0  0  0  0  0  0
   14.5850   11.7350    3.8380 O   0  0  0  0  0  1  0  0  0  0  0  0
   19.0190   16.3280    3.9320 C   0  0  0  0  0  0  0  0  0  0  0  0
   19.9040   15.4950    3.5410 O   0  0  0  0  0  0  0  0  0  0  0  0
   19.2230   17.5700    4.1100 O   0  0  0  0  0  1  0  0  0  0  0  0
   12.7940   15.0010    4.2570 C   0  0  0  0  0  0  0  0  0  0  0  0
   13.7710   14.3920    5.1030 O   0  0  0  0  0  0  0  0  0  0  0  0
   14.8715   16.4417    6.1312 H   0  0  0  0  0  0  0  0  0  0  0  0
   17.1528   17.3036    5.6617 H   0  0  0  0  0  0  0  0  0  0  0  0
   17.7570   14.1318    2.7767 H   0  0  0  0  0  0  0  0  0  0  0  0
   12.0221   15.4822    4.8756 H   0  0  0  0  0  0  0  0  0  0  0  0
   13.2789   15.7571    3.6220 H   0  0  0  0  0  0  0  0  0  0  0  0
   12.3287   14.2327    3.6220 H   0  0  0  0  0  0  0  0  0  0  0  0
  2  1  2  0
  3  2  1  0
  4  3  2  0
  5  4  1  0
  6  1  1  0
  6  5  2  0
  7  6  1  0
  8  7  2  0
  7  9  1  1
 10  4  1  0
 11 10  2  0
 12 10  1  0
 14 13  1  0
 14  1  1  0
  2 15  1  0
  3 16  1  0
  5 17  1  0
 13 18  1  0
 13 19  1  0
 13 20  1  0
M  CHG  2   9  -1  12  -1
M  END
$$$$
=
     RDKit          3D

 19 19  0  0  0  0  0  0  0  0999 V2000
   19.0880   16.9310    4.9970 C   0  0  2  0  0  0  0  0  0  0  0  0
   19.4340   15.8180    5.9470 C   0  0  0  0  0  0  0  0  0  0  0  0
   19.1780   14.5830    5.4850 C   0  0  0  0  0  0  0  0  0  0  0  0
   18.4570   14.6640    3.9140 S   0  0  0  0  0  6  0  0  0  0  0  0
   17.0110   14.6950    4.0620 O   0  0  0  0  0  0  0  0  0  0  0  0
   19.0770   13.7360    2.9890 O   0  0  0  0  0  0  0  0  0  0  0  0
   19.0130   16.3380    3.5920 C   0  0  0  0  0  0  0  0  0  0  0  0
   20.1110   18.4230    5.2130 S   0  0  0  0  0  0  0  0  0  0  0  0
   21.6840   17.9930    4.3800 C   0  0  0  0  0  0  0  0  0  0  0  0
   23.8050   18.6410    5.1740 O   0  0  0  0  0  1  0  0  0  0  0  0
   22.8030   17.9080    5.4230 C   0  0  0  0  0  0  0  0  0  0  0  0
   22.6000   17.1400    6.4030 O   0  0  0  0  0  0  0  0  0  0  0  0
   18.0946   17.3453    5.2242 H   0  0  0  0  0  0  0  0  0  0  0  0
   19.8634   16.0010    6.9430 H   0  0  0  0  0  0  0  0  0  0  0  0
   19.3959   13.6518    6.0285 H   0  0  0  0  0  0  0  0  0  0  0  0
   19.9988   16.3435    3.1040 H   0  0  0  0  0  0  0  0  0  0  0  0
   18.3544   16.8980    2.9118 H   0  0  0  0  0  0  0  0  0  0  0  0
   21.5785   17.0218    3.8744 H   0  0  0  0  0  0  0  0  0  0  0  0
   21.9307   18.7660    3.6373 H   0  0  0  0  0  0  0  0  0  0  0  0
  2  1  1  0
  3  2  2  0
  4  3  1  0
  5  4  2  0
  6  4  2  0
  7  4  1  0
  7  1  1  0
  8  1  1  0
  9  8  1  0
 11  9  1  0
 11 10  1  0
 12 11  2  0
  1 13  1  1
  2 14  1  0
  3 15  1  0
  7 16  1  0
  7 17  1  0
  9 18  1  0
  9 19  1  0
M  CHG  1  10  -1
M  END
$$$$
=
     RDKit          3D

 19 20  0  0  0  0  0  0  0  0999 V2000
   12.3620   14.3550    4.4840 S   0  0  0  0  0  0  0  0  0  0  0  0
   14.0240   14.5770    4.3750 C   0  0  0  0  0  0  0  0  0  0  0  0
   14.6760   15.6310    4.9620 N   0  0  0  0  0  0  0  0  0  0  0  0
   15.9630   15.6980    4.8090 C   0  0  0  0  0  0  0  0  0  0  0  0
   16.6740   16.8450    5.4470 C   0  0  0  0  0  0  0  0  0  0  0  0
   18.0020   16.9840    5.3350 C   0  0  0  0  0  0  0  0  0  0  0  0
   18.8060   16.0420    4.5990 C   0  0  0  0  0  0  0  0  0  0  0  0
   18.2570   14.9810    3.9920 C   0  0  0  0  0  0  0  0  0  0  0  0
   16.8300   14.7300    4.0460 C   0  0  0  0  0  0  0  0  0  0  0  0
   16.1430   13.7170    3.4910 C   0  0  0  0  0  0  0  0  0  0  0  0
   14.7660   13.6730    3.6730 N   0  0  0  0  0  0  0  0  0  0  0  0
   16.7310   12.5280    2.6270 C   0  0  0  0  0  0  0  0  0  0  0  0
   16.0560   12.3230    1.5680 O   0  0  0  0  0  0  0  0  0  0  0  0
   17.7540   11.9360    3.0540 O   0  0  0  0  0  1  0  0  0  0  0  0
   16.0984   17.5882    6.0183 H   0  0  0  0  0  0  0  0  0  0  0  0
   18.4922   17.8417    5.8188 H   0  0  0  0  0  0  0  0  0  0  0  0
   19.8931   16.1969    4.5340 H   0  0  0  0  0  0  0  0  0  0  0  0
   18.9043   14.2839    3.4396 H   0  0  0  0  0  0  0  0  0  0  0  0
   14.2605   12.8875    3.2390 H   0  0  0  0  0  0  0  0  0  0  0  0
  2  1  2  0
  3  2  1  0
  4  3  2  0
  5  4  1  0
  6  5  2  0
  7  6  1  0
  8  7  2  0
  9  4  1  0
  9  8  1  0
 10  9  2  0
 11 10  1  0
 11  2  1  0
 12 10  1  0
 13 12  2  0
 14 12  1  0
  5 15  1  0
  6 16  1  0
  7 17  1  0
  8 18  1  0
 11 19  1  0
M  CHG  1  14  -1
M  END
$$$$
=
     RDKit          3D

 43 45  0  0  0  0  0  0  0  0999 V2000
   17.0940   15.0300    4.0760 C   0  0  0  0  0  0  0  0  0  0  0  0
   16.2990   15.9340    4.7880 C   0  0  0  0  0  0  0  0  0  0  0  0
   14.9050   15.8050    4.8060 C   0  0  0  0  0  0  0  0  0  0  0  0
   14.2920   14.7480    4.1050 C   0  0  0  0  0  0  0  0  0  0  0  0
   15.1020   13.8470    3.4060 C   0  0  0  0  0  0  0  0  0  0  0  0
   16.5030   13.9630    3.3800 C   0  0  0  0  0  0  0  0  0  0  0  0
   14.0990   12.6630    2.6550 S   0  0  0  0  0  0  0  0  0  0  0  0
   12.7270   13.4320    3.2980 C   0  0  0  0  0  0  0  0  0  0  0  0
   12.9300   14.4990    4.0370 N   0  0  0  0  0  0  0  0  0  0  0  0
   11.4440   12.9250    3.0380 N   0  0  0  0  0  0  0  0  0  0  0  0
   11.0750   11.8200    2.2840 C   0  0  0  0  0  0  0  0  0  0  0  0
    9.7030   11.6890    2.3000 C   0  0  0  0  0  0  0  0  0  0  0  0
    9.1900   12.7420    3.0840 C   0  0  0  0  0  0  0  0  0  0  0  0
   10.2660   13.4800    3.5210 C   0  0  0  0  0  0  0  0  0  0  0  0
   19.0360   16.1780    4.9670 N   0  0  0  0  0  0  0  0  0  0  0  0
   18.5770   15.2190    4.1100 C   0  0  0  0  0  0  0  0  0  0  0  0
   19.2920   14.5210    3.3980 O   0  0  0  0  0  0  0  0  0  0  0  0
   20.4630   16.4350    5.2810 C   0  0  2  0  0  0  0  0  0  0  0  0
   20.9280   15.4900    6.4530 C   0  0  0  0  0  0  0  0  0  0  0  0
   20.2370   14.4580    6.6650 O   0  0  0  0  0  0  0  0  0  0  0  0
   21.9650   15.9150    7.0630 O   0  0  0  0  0  1  0  0  0  0  0  0
   20.7220   17.9430    5.5160 C   0  0  2  0  0  0  0  0  0  0  0  0
   19.4080   18.7380    5.5000 C   0  0  0  0  0  0  0  0  0  0  0  0
   23.1840   18.4510    4.9470 C   0  0  0  0  0  0  0  0  0  0  0  0
   21.7250   18.5960    4.5410 C   0  0  0  0  0  0  0  0  0  0  0  0
   16.7752   16.7570    5.3410 H   0  0  0  0  0  0  0  0  0  0  0  0
   14.2909   16.5261    5.3653 H   0  0  0  0  0  0  0  0  0  0  0  0
   17.1196   13.2374    2.8293 H   0  0  0  0  0  0  0  0  0  0  0  0
   11.7703   11.1516    1.7550 H   0  0  0  0  0  0  0  0  0  0  0  0
    9.1169   10.9074    1.7945 H   0  0  0  0  0  0  0  0  0  0  0  0
    8.1301   12.9369    3.3047 H   0  0  0  0  0  0  0  0  0  0  0  0
   10.2027   14.3751    4.1573 H   0  0  0  0  0  0  0  0  0  0  0  0
   18.3346   16.7710    5.4332 H   0  0  0  0  0  0  0  0  0  0  0  0
   21.0942   16.1808    4.4167 H   0  0  0  0  0  0  0  0  0  0  0  0
   21.1896   17.9850    6.5108 H   0  0  0  0  0  0  0  0  0  0  0  0
   19.0851   18.9334    6.5332 H   0  0  0  0  0  0  0  0  0  0  0  0
   19.5638   19.6934    4.9777 H   0  0  0  0  0  0  0  0  0  0  0  0
   18.6340   18.1566    4.9777 H   0  0  0  0  0  0  0  0  0  0  0  0
   23.2602   18.4434    6.0443 H   0  0  0  0  0  0  0  0  0  0  0  0
   23.5845   17.5086    4.5451 H   0  0  0  0  0  0  0  0  0  0  0  0
   23.7622   19.2961    4.5451 H   0  0  0  0  0  0  0  0  0  0  0  0
   21.5955   18.1313    3.5524 H   0  0  0  0  0  0  0  0  0  0  0  0
   21.5055   19.6739    4.5413 H   0  0  0  0  0  0  0  0  0  0  0  0
  2  1  2  0
  3  2  1  0
  4  3  2  0
  5  4  1  0
  6  5  2  0
  6  1  1  0
  7  5  1  0
  8  7  1  0
  9  8  2  0
  9  4  1  0
 10  8  1  0
 11 10  1  0
 12 11  2  0
 13 12  1  0
 14 13  2  0
 14 10  1  0
 16 15  1  0
 16  1  1  0
 17 16  2  0
 18 15  1  0
 19 18  1  0
 20 19  2  0
 21 19  1  0
 22 18  1  0
 23 22  1  0
 25 22  1  0
 25 24  1  0
  2 26  1  0
  3 27  1  0
  6 28  1  0
 11 29  1  0
 12 30  1  0
 13 31  1  0
 14 32  1  0
 15 33  1  0
 18 34  1  6
 22 35  1  1
 23 36  1  0
 23 37  1  0
 23 38  1  0
 24 39  1  0
 24 40  1  0
 24 41  1  0
 25 42  1  0
 25 43  1  0
M  CHG  1  21  -1
M  END
$$$$
=
     RDKit          3D

 24 24  0  0  0  0  0  0  0  0999 V2000
   19.1300   16.9110    5.0580 C   0  0  0  0  0  0  0  0  0  0  0  0
   17.8350   16.7750    4.4700 C   0  0  0  0  0  0  0  0  0  0  0  0
   17.4510   15.4580    4.3270 C   0  0  0  0  0  0  0  0  0  0  0  0
   18.6590   14.3950    4.9000 S   0  0  0  0  0  0  0  0  0  0  0  0
   19.7000   15.6880    5.3440 C   0  0  0  0  0  0  0  0  0  0  0  0
   21.1250   15.4100    5.9950 C   0  0  0  0  0  0  0  0  0  0  0  0
   22.0900   15.2370    5.1880 O   0  0  0  0  0  0  0  0  0  0  0  0
   21.1950   15.3510    7.2610 O   0  0  0  0  0  1  0  0  0  0  0  0
   16.1770   14.9190    3.7560 C   0  0  0  0  0  0  0  0  0  0  0  0
   14.9560   15.5440    4.4130 C   0  0  0  0  0  0  0  0  0  0  0  0
   19.8160   18.5180    5.2840 S   0  0  0  0  0  0  0  0  0  0  0  0
   22.4740   18.7260    4.6650 C   0  0  0  0  0  0  0  0  0  0  0  0
   21.1230   18.4660    4.0220 C   0  0  0  0  0  0  0  0  0  0  0  0
   17.2117   17.6283    4.1644 H   0  0  0  0  0  0  0  0  0  0  0  0
   16.1507   15.1343    2.6776 H   0  0  0  0  0  0  0  0  0  0  0  0
   16.1494   13.8354    3.9430 H   0  0  0  0  0  0  0  0  0  0  0  0
   15.0604   15.4905    5.5067 H   0  0  0  0  0  0  0  0  0  0  0  0
   14.8715   16.5962    4.1037 H   0  0  0  0  0  0  0  0  0  0  0  0
   14.0530   14.9973    4.1037 H   0  0  0  0  0  0  0  0  0  0  0  0
   22.3690   18.7058    5.7598 H   0  0  0  0  0  0  0  0  0  0  0  0
   23.1855   17.9483    4.3505 H   0  0  0  0  0  0  0  0  0  0  0  0
   22.8461   19.7122    4.3505 H   0  0  0  0  0  0  0  0  0  0  0  0
   21.1307   17.4745    3.5457 H   0  0  0  0  0  0  0  0  0  0  0  0
   20.9270   19.2406    3.2660 H   0  0  0  0  0  0  0  0  0  0  0  0
  2  1  1  0
  3  2  2  0
  4  3  1  0
  5  4  1  0
  5  1  2  0
  6  5  1  0
  7  6  2  0
  8  6  1  0
  9  3  1  0
 10  9  1  0
 11  1  1  0
 13 11  1  0
 13 12  1  0
  2 14  1  0
  9 15  1  0
  9 16  1  0
 10 17  1  0
 10 18  1  0
 10 19  1  0
 12 20  1  0
 12 21  1  0
 12 22  1  0
 13 23  1  0
 13 24  1  0
M  CHG  1   8  -1
M  END
$$$$
=
     RDKit          3D

 27 28  0  0  0  0  0  0  0  0999 V2000
   16.6370   15.7570    4.2730 O   0  0  0  0  0  0  0  0  0  0  0  0
   15.5540   14.9760    4.0680 C   0  0  0  0  0  0  0  0  0  0  0  0
   14.2580   15.3560    4.4100 N   0  0  0  0  0  0  0  0  0  0  0  0
   13.4290   14.3720    4.1400 C   0  0  0  0  0  0  0  0  0  0  0  0
   14.1320   12.9610    3.4700 S   0  0  0  0  0  0  0  0  0  0  0  0
   15.6690   13.7150    3.5250 C   0  0  0  0  0  0  0  0  0  0  0  0
   11.9630   14.4230    4.3840 C   0  0  0  0  0  0  0  0  0  0  0  0
   16.9880   13.0370    3.0090 C   0  0  0  0  0  0  0  0  0  0  0  0
   18.0960   13.5530    3.3530 O   0  0  0  0  0  0  0  0  0  0  0  0
   16.8410   12.0230    2.2560 O   0  0  0  0  0  1  0  0  0  0  0  0
   16.9350   15.9300    5.6500 C   0  0  0  0  0  0  0  0  0  0  0  0
   22.5130   16.5940    6.2660 F   0  0  0  0  0  0  0  0  0  0  0  0
   21.1900   16.4320    6.1300 C   0  0  0  0  0  0  0  0  0  0  0  0
   20.5990   15.2410    6.5330 C   0  0  0  0  0  0  0  0  0  0  0  0
   19.2210   15.0750    6.3880 C   0  0  0  0  0  0  0  0  0  0  0  0
   18.4290   16.1040    5.8500 C   0  0  0  0  0  0  0  0  0  0  0  0
   19.0510   17.2950    5.4390 C   0  0  0  0  0  0  0  0  0  0  0  0
   20.4290   17.4590    5.5840 C   0  0  0  0  0  0  0  0  0  0  0  0
   11.7716   14.4297    5.4672 H   0  0  0  0  0  0  0  0  0  0  0  0
   11.5477   15.3361    3.9326 H   0  0  0  0  0  0  0  0  0  0  0  0
   11.4853   13.5409    3.9326 H   0  0  0  0  0  0  0  0  0  0  0  0
   16.4128   16.8228    6.0245 H   0  0  0  0  0  0  0  0  0  0  0  0
   16.6026   15.0384    6.2018 H   0  0  0  0  0  0  0  0  0  0  0  0
   21.2123   14.4354    6.9629 H   0  0  0  0  0  0  0  0  0  0  0  0
   18.7503   14.1302    6.6976 H   0  0  0  0  0  0  0  0  0  0  0  0
   18.4477   18.1033    5.0001 H   0  0  0  0  0  0  0  0  0  0  0  0
   20.9106   18.3961    5.2679 H   0  0  0  0  0  0  0  0  0  0  0  0
  2  1  1  0
  3  2  1  0
  4  3  2  0
  5  4  1  0
  6  5  1  0
  6  2  2  0
  7  4  1  0
  8  6  1  0
  9  8  2  0
 10  8  1  0
 11  1  1  0
 13 12  1  0
 14 13  2  0
 15 14  1  0
 16 15  2  0
 16 11  1  0
 17 16  1  0
 18 17  2  0
 18 13  1  0
  7 19  1  0
  7 20  1  0
  7 21  1  0
 11 22  1  0
 11 23  1  0
 14 24  1  0
 15 25  1  0
 17 26  1  0
 18 27  1  0
M  CHG  1  10  -1
M  END
$$$$
=
     RDKit          3D

 50 53  0  0  0  0  0  0  0  0999 V2000
   27.0850   25.8860   17.0520 O   0  0  0  0  0  0  0  0  0  0  0  0
   27.0880   25.1480   16.0800 C   0  0  0  0  0  0  0  0  0  0  0  0
   26.1460   25.0670   15.1190 N   0  0  0  0  0  0  0  0  0  0  0  0
   24.9150   25.8740   14.9180 C   0  0  1  0  0  0  0  0  0  0  0  0
   24.9280   26.6510   13.5970 C   0  0  0  0  0  0  0  0  0  0  0  0
   24.1320   25.7990   12.6190 C   0  0  0  0  0  0  0  0  0  0  0  0
   23.2930   24.9400   13.4220 N   0  0  0  0  0  0  0  0  0  0  0  0
   23.6370   25.0260   14.8410 C   0  0  0  0  0  0  0  0  0  0  0  0
   22.3210   24.1490   12.8590 C   0  0  0  0  0  0  0  0  0  0  0  0
   22.0870   24.1230   11.6500 O   0  0  0  0  0  0  0  0  0  0  0  0
   21.5300   23.2900   13.8120 C   0  0  0  0  0  0  0  0  0  0  0  0
   24.6850   26.8170   16.1520 C   0  0  0  0  0  0  0  0  0  0  0  0
   25.1230   27.9990   15.9720 O   0  0  0  0  0  0  0  0  0  0  0  0
   24.1130   26.3260   17.1620 O   0  0  0  0  0  1  0  0  0  0  0  0
   28.0740   24.2560   15.8040 O   0  0  0  0  0  0  0  0  0  0  0  0
   29.4150   24.7550   15.9600 C   0  0  0  0  0  0  0  0  0  0  0  0
   29.8980   25.4660   14.6900 C   0  0  0  0  0  0  0  0  0  0  0  0
   29.2230   24.9260   13.4290 C   0  0  0  0  0  0  0  0  0  0  0  0
   29.2580   23.6360   12.9220 C   0  0  0  0  0  0  0  0  0  0  0  0
   28.5610   23.3750   11.7410 C   0  0  0  0  0  0  0  0  0  0  0  0
   27.8500   24.3940   11.0860 C   0  0  0  0  0  0  0  0  0  0  0  0
   27.8240   25.6940   11.6000 C   0  0  0  0  0  0  0  0  0  0  0  0
   28.5150   25.9550   12.7720 C   0  0  0  0  0  0  0  0  0  0  0  0
   28.6720   27.1840   13.5210 C   0  0  0  0  0  0  0  0  0  0  0  0
   29.4790   26.9310   14.6500 C   0  0  0  0  0  0  0  0  0  0  0  0
   29.8190   27.9440   15.5360 C   0  0  0  0  0  0  0  0  0  0  0  0
   29.3230   29.2250   15.2930 C   0  0  0  0  0  0  0  0  0  0  0  0
   28.5070   29.4790   14.1780 C   0  0  0  0  0  0  0  0  0  0  0  0
   28.1790   28.4560   13.2810 C   0  0  0  0  0  0  0  0  0  0  0  0
   26.3043   24.3318   14.4152 H   0  0  0  0  0  0  0  0  0  0  0  0
   24.4535   27.6351   13.7247 H   0  0  0  0  0  0  0  0  0  0  0  0
   25.9523   26.8341   13.2402 H   0  0  0  0  0  0  0  0  0  0  0  0
   23.5140   26.4386   11.9717 H   0  0  0  0  0  0  0  0  0  0  0  0
   24.7956   25.2136   11.9656 H   0  0  0  0  0  0  0  0  0  0  0  0
   22.8238   25.5091   15.4025 H   0  0  0  0  0  0  0  0  0  0  0  0
   23.7892   24.0285   15.2791 H   0  0  0  0  0  0  0  0  0  0  0  0
   21.7818   23.5634   14.8473 H   0  0  0  0  0  0  0  0  0  0  0  0
   20.4548   23.4482   13.6421 H   0  0  0  0  0  0  0  0  0  0  0  0
   21.7762   22.2314   13.6421 H   0  0  0  0  0  0  0  0  0  0  0  0
   29.4370   25.4662   16.7989 H   0  0  0  0  0  0  0  0  0  0  0  0
   30.0817   23.9019   16.1544 H   0  0  0  0  0  0  0  0  0  0  0  0
   30.9871   25.3136   14.7142 H   0  0  0  0  0  0  0  0  0  0  0  0
   29.8188   22.8412   13.4356 H   0  0  0  0  0  0  0  0  0  0  0  0
   28.5687   22.3594   11.3184 H   0  0  0  0  0  0  0  0  0  0  0  0
   27.3068   24.1664   10.1570 H   0  0  0  0  0  0  0  0  0  0  0  0
   27.2676   26.4913   11.0855 H   0  0  0  0  0  0  0  0  0  0  0  0
   30.4617   27.7423   16.4056 H   0  0  0  0  0  0  0  0  0  0  0  0
   29.5735   30.0451   15.9819 H   0  0  0  0  0  0  0  0  0  0  0  0
   28.1209   30.4949   14.0078 H   0  0  0  0  0  0  0  0  0  0  0  0
   27.5443   28.6575   12.4055 H   0  0  0  0  0  0  0  0  0  0  0  0
  2  1  2  0
  3  2  1  0
  4  3  1  0
  5  4  1  0
  6  5  1  0
  7  6  1  0
  8  7  1  0
  8  4  1  0
  9  7  1  0
 10  9  2  0
 11  9  1  0
  4 12  1  1
 13 12  2  0
 14 12  1  0
 15  2  1  0
 16 15  1  0
 17 16  1  0
 18 17  1  0
 19 18  2  0
 20 19  1  0
 21 20  2  0
 22 21  1  0
 23 22  2  0
 23 18  1  0
 24 23  1  0
 25 24  2  0
 25 17  1  0
 26 25  1  0
 27 26  2  0
 28 27  1  0
 29 24  1  0
 29 28  2  0
  3 30  1  0
  5 31  1  0
  5 32  1  0
  6 33  1  0
  6 34  1  0
  8 35  1  0
  8 36  1  0
 11 37  1  0
 11 38  1  0
 11 39  1  0
 16 40  1  0
 16 41  1  0
 17 42  1  0
 19 43  1  0
 20 44  1  0
 21 45  1  0
 22 46  1  0
 26 47  1  0
 27 48  1  0
 28 49  1  0
 29 50  1  0
M  CHG  1  14  -1
M  END
$$$$
=
     RDKit          3D

 14 14  0  0  0  0  0  0  0  0999 V2000
   19.5200   15.3000    5.4540 C   0  0  0  0  0  0  0  0  0  0  0  0
   19.1620   14.8610    4.1730 C   0  0  0  0  0  0  0  0  0  0  0  0
   17.8360   14.9030    3.9750 N   0  0  0  0  0  0  0  0  0  0  0  0
   17.3520   15.3820    5.1610 N   0  0  0  0  0  0  0  0  0  0  0  0
   18.3400   15.6320    6.0760 C   0  0  0  0  0  0  0  0  0  0  0  0
   15.9150   15.5830    5.3730 C   0  0  0  0  0  0  0  0  0  0  0  0
   15.1540   14.7470    4.6080 F   0  0  0  0  0  0  0  0  0  0  0  0
   15.5170   16.8490    5.0630 F   0  0  0  0  0  0  0  0  0  0  0  0
   15.5440   15.3580    6.6650 F   0  0  0  0  0  0  0  0  0  0  0  0
   21.0770   15.3830    7.2810 O   0  0  0  0  0  1  0  0  0  0  0  0
   20.9670   15.3820    6.0190 C   0  0  0  0  0  0  0  0  0  0  0  0
   21.9000   15.4400    5.1610 O   0  0  0  0  0  0  0  0  0  0  0  0
   19.8848   14.5210    3.4167 H   0  0  0  0  0  0  0  0  0  0  0  0
   18.2150   16.0188    7.0981 H   0  0  0  0  0  0  0  0  0  0  0  0
  2  1  1  0
  3  2  2  0
  4  3  1  0
  5  4  1  0
  5  1  2  0
  6  4  1  0
  7  6  1  0
  8  6  1  0
  9  6  1  0
 11 10  1  0
 11  1  1  0
 12 11  2  0
  2 13  1  0
  5 14  1  0
M  CHG  1  10  -1
M  END
$$$$
=
     RDKit          3D

 55 56  0  0  0  0  0  0  0  0999 V2000
   27.1150   27.6750   16.3190 C   0  0  1  0  0  0  0  0  0  0  0  0
   27.5270   26.2110   16.0240 C   0  0  0  0  0  0  0  0  0  0  0  0
   27.4190   25.3490   16.9030 O   0  0  0  0  0  0  0  0  0  0  0  0
   27.9910   25.9270   14.7610 N   0  0  0  0  0  0  0  0  0  0  0  0
   27.9620   26.7860   13.5890 C   0  0  0  0  0  0  0  0  0  0  0  0
   28.7350   26.0350   12.5130 C   0  0  0  0  0  0  0  0  0  0  0  0
   28.6390   24.5760   12.9480 C   0  0  0  0  0  0  0  0  0  0  0  0
   28.6960   24.6640   14.4720 C   0  0  1  0  0  0  0  0  0  0  0  0
   30.2020   24.6200   14.8940 C   0  0  0  0  0  0  0  0  0  0  0  0
   30.7310   25.7330   15.1910 O   0  0  0  0  0  0  0  0  0  0  0  0
   30.7340   23.4710   14.8490 O   0  0  0  0  0  1  0  0  0  0  0  0
   24.6570   27.4190   16.5120 C   0  0  0  0  0  0  0  0  0  0  0  0
   24.4090   27.5410   15.3210 O   0  0  0  0  0  0  0  0  0  0  0  0
   25.8760   27.6420   17.0960 N   0  0  0  0  0  0  0  0  0  0  0  0
   22.2880   26.4840   16.8970 C   0  0  1  0  0  0  0  0  0  0  0  0
   22.4090   27.7970   17.4840 O   0  0  0  0  0  0  0  0  0  0  0  0
   23.5980   26.9810   17.4460 C   0  0  2  0  0  0  0  0  0  0  0  0
   21.1100   24.3890   16.9670 N   0  0  0  0  0  0  0  0  0  0  0  0
   21.4900   25.5070   17.6700 C   0  0  0  0  0  0  0  0  0  0  0  0
   21.2270   25.7130   18.8470 O   0  0  0  0  0  0  0  0  0  0  0  0
   20.3840   23.2950   17.5710 C   0  0  0  0  0  0  0  0  0  0  0  0
   21.8070   21.4530   16.5590 C   0  0  0  0  0  0  0  0  0  0  0  0
   20.4080   22.0310   16.7140 C   0  0  0  0  0  0  0  0  0  0  0  0
   28.2310   28.4840   17.0300 C   0  0  1  0  0  0  0  0  0  0  0  0
   29.2070   27.5050   17.7040 C   0  0  0  0  0  0  0  0  0  0  0  0
   29.0470   29.4530   16.1440 C   0  0  0  0  0  0  0  0  0  0  0  0
   30.5430   29.1940   16.1210 C   0  0  0  0  0  0  0  0  0  0  0  0
   26.9504   28.2050   15.3692 H   0  0  0  0  0  0  0  0  0  0  0  0
   26.9250   26.9604   13.2661 H   0  0  0  0  0  0  0  0  0  0  0  0
   28.4042   27.7719   13.7953 H   0  0  0  0  0  0  0  0  0  0  0  0
   28.2736   26.1806   11.5251 H   0  0  0  0  0  0  0  0  0  0  0  0
   29.7741   26.3823   12.4147 H   0  0  0  0  0  0  0  0  0  0  0  0
   27.6927   24.1258   12.6136 H   0  0  0  0  0  0  0  0  0  0  0  0
   29.4325   23.9447   12.5215 H   0  0  0  0  0  0  0  0  0  0  0  0
   28.2219   23.8472   15.0360 H   0  0  0  0  0  0  0  0  0  0  0  0
   25.9216   27.7911   18.1141 H   0  0  0  0  0  0  0  0  0  0  0  0
   21.9790   26.0524   15.9335 H   0  0  0  0  0  0  0  0  0  0  0  0
   24.3267   26.5850   18.1686 H   0  0  0  0  0  0  0  0  0  0  0  0
   21.3527   24.3282   15.9679 H   0  0  0  0  0  0  0  0  0  0  0  0
   20.8372   23.0676   18.5472 H   0  0  0  0  0  0  0  0  0  0  0  0
   19.3345   23.6080   17.6744 H   0  0  0  0  0  0  0  0  0  0  0  0
   22.2418   21.2734   17.5533 H   0  0  0  0  0  0  0  0  0  0  0  0
   21.7523   20.5038   16.0058 H   0  0  0  0  0  0  0  0  0  0  0  0
   22.4383   22.1640   16.0058 H   0  0  0  0  0  0  0  0  0  0  0  0
   19.7647   21.2737   17.1858 H   0  0  0  0  0  0  0  0  0  0  0  0
   20.0479   22.3029   15.7108 H   0  0  0  0  0  0  0  0  0  0  0  0
   27.6964   29.1254   17.7461 H   0  0  0  0  0  0  0  0  0  0  0  0
   29.1188   27.5935   18.7969 H   0  0  0  0  0  0  0  0  0  0  0  0
   28.9641   26.4765   17.3986 H   0  0  0  0  0  0  0  0  0  0  0  0
   30.2362   27.7448   17.3986 H   0  0  0  0  0  0  0  0  0  0  0  0
   28.6706   29.3725   15.1135 H   0  0  0  0  0  0  0  0  0  0  0  0
   28.9145   30.4543   16.5797 H   0  0  0  0  0  0  0  0  0  0  0  0
   30.9197   29.1288   17.1524 H   0  0  0  0  0  0  0  0  0  0  0  0
   30.7433   28.2478   15.5970 H   0  0  0  0  0  0  0  0  0  0  0  0
   31.0497   30.0178   15.5970 H   0  0  0  0  0  0  0  0  0  0  0  0
  2  1  1  0
  3  2  2  0
  4  2  1  0
  5  4  1  0
  6  5  1  0
  7  6  1  0
  8  7  1  0
  8  4  1  0
  9  8  1  0
 10  9  2  0
 11  9  1  0
 13 12  2  0
 14  1  1  0
 14 12  1  0
 16 15  1  0
 17 15  1  0
 17 16  1  0
 17 12  1  0
 19 18  1  0
 19 15  1  0
 20 19  2  0
 21 18  1  0
 23 21  1  0
 23 22  1  0
 24  1  1  0
 25 24  1  0
 26 24  1  0
 27 26  1  0
  1 28  1  6
  5 29  1  0
  5 30  1  0
  6 31  1  0
  6 32  1  0
  7 33  1  0
  7 34  1  0
  8 35  1  1
 14 36  1  0
 15 37  1  6
 17 38  1  1
 18 39  1  0
 21 40  1  0
 21 41  1  0
 22 42  1  0
 22 43  1  0
 22 44  1  0
 23 45  1  0
 23 46  1  0
 24 47  1  1
 25 48  1  0
 25 49  1  0
 25 50  1  0
 26 51  1  0
 26 52  1  0
 27 53  1  0
 27 54  1  0
 27 55  1  0
M  CHG  1  11  -1
M  END
$$$$
=
     RDKit          3D

 34 36  0  0  0  0  0  0  0  0999 V2000
   19.8510   17.6760    1.3410 O   0  0  0  0  0  0  0  0  0  0  0  0
   19.7800   17.0210    2.3790 C   0  0  0  0  0  0  0  0  0  0  0  0
   18.8590   16.0190    2.5260 N   0  0  0  0  0  0  0  0  0  0  0  0
   18.5130   15.5290    3.8070 N   0  0  0  0  0  0  0  0  0  0  0  0
   19.5300   15.3860    4.7700 C   0  0  0  0  0  0  0  0  0  0  0  0
   19.4280   14.7670    5.8270 O   0  0  0  0  0  0  0  0  0  0  0  0
   20.8770   15.9680    4.3340 C   0  0  1  0  0  0  0  0  0  0  0  0
   20.6760   17.2720    3.5610 C   0  0  2  0  0  0  0  0  0  0  0  0
   20.1100   18.3970    4.4370 C   0  0  0  0  0  0  0  0  0  0  0  0
   20.7690   18.4600    5.7830 C   0  0  0  0  0  0  0  0  0  0  0  0
   21.5520   17.4830    6.2640 C   0  0  0  0  0  0  0  0  0  0  0  0
   21.8200   16.1980    5.5280 C   0  0  0  0  0  0  0  0  0  0  0  0
   17.1390   15.2140    4.0660 C   0  0  0  0  0  0  0  0  0  0  0  0
   16.3930   15.9620    4.9930 C   0  0  0  0  0  0  0  0  0  0  0  0
   15.0680   15.6320    5.2870 C   0  0  0  0  0  0  0  0  0  0  0  0
   14.4720   14.5360    4.6710 C   0  0  0  0  0  0  0  0  0  0  0  0
   15.1830   13.7600    3.7460 C   0  0  0  0  0  0  0  0  0  0  0  0
   16.5120   14.1240    3.4410 C   0  0  0  0  0  0  0  0  0  0  0  0
   14.5400   12.5420    3.1110 C   0  0  0  0  0  0  0  0  0  0  0  0
   15.2290   11.9120    2.2470 O   0  0  0  0  0  0  0  0  0  0  0  0
   13.3570   12.2520    3.4740 O   0  0  0  0  0  1  0  0  0  0  0  0
   18.4110   15.6156    1.6909 H   0  0  0  0  0  0  0  0  0  0  0  0
   21.3514   15.2276    3.6731 H   0  0  0  0  0  0  0  0  0  0  0  0
   21.6639   17.6114    3.2162 H   0  0  0  0  0  0  0  0  0  0  0  0
   20.2646   19.3570    3.9227 H   0  0  0  0  0  0  0  0  0  0  0  0
   19.0409   18.1926    4.5962 H   0  0  0  0  0  0  0  0  0  0  0  0
   20.6019   19.3510    6.4060 H   0  0  0  0  0  0  0  0  0  0  0  0
   22.0227   17.6286    7.2475 H   0  0  0  0  0  0  0  0  0  0  0  0
   21.7007   15.3616    6.2324 H   0  0  0  0  0  0  0  0  0  0  0  0
   22.8421   16.2616    5.1263 H   0  0  0  0  0  0  0  0  0  0  0  0
   16.8604   16.8217    5.4954 H   0  0  0  0  0  0  0  0  0  0  0  0
   14.4961   16.2382    6.0050 H   0  0  0  0  0  0  0  0  0  0  0  0
   13.4310   14.2758    4.9129 H   0  0  0  0  0  0  0  0  0  0  0  0
   17.0705   13.5394    2.6952 H   0  0  0  0  0  0  0  0  0  0  0  0
  2  1  2  0
  3  2  1  0
  4  3  1  0
  5  4  1  0
  6  5  2  0
  7  5  1  0
  8  7  1  0
  8  2  1  0
  9  8  1  0
 10  9  1  0
 11 10  2  0
 12  7  1  0
 12 11  1  0
 13  4  1  0
 14 13  2  0
 15 14  1  0
 16 15  2  0
 17 16  1  0
 18 17  2  0
 18 13  1  0
 19 17  1  0
 20 19  2  0
 21 19  1  0
  3 22  1  0
  7 23  1  6
  8 24  1  6
  9 25  1  0
  9 26  1  0
 10 27  1  0
 11 28  1  0
 12 29  1  0
 12 30  1  0
 14 31  1  0
 15 32  1  0
 16 33  1  0
 18 34  1  0
M  CHG  1  21  -1
M  END
$$$$
=
     RDKit          3D

 39 42  0  0  0  0  0  0  0  0999 V2000
   27.1900   24.8090   12.8210 N   0  0  0  0  0  0  0  0  0  0  0  0
   26.5710   24.0400   11.8350 C   0  0  0  0  0  0  0  0  0  0  0  0
   25.2590   24.4720   11.6790 C   0  0  0  0  0  0  0  0  0  0  0  0
   25.1150   25.4670   12.6210 C   0  0  0  0  0  0  0  0  0  0  0  0
   26.2640   25.7170   13.2820 C   0  0  0  0  0  0  0  0  0  0  0  0
   25.9560   26.7390   14.1540 N   0  0  0  0  0  0  0  0  0  0  0  0
   24.6070   27.0270   14.1080 N   0  0  0  0  0  0  0  0  0  0  0  0
   24.1070   26.2730   13.1120 C   0  0  0  0  0  0  0  0  0  0  0  0
   26.7770   27.5080   15.0280 C   0  0  0  0  0  0  0  0  0  0  0  0
   27.0220   27.1170   16.3430 C   0  0  0  0  0  0  0  0  0  0  0  0
   27.8370   27.8940   17.1730 C   0  0  0  0  0  0  0  0  0  0  0  0
   28.4250   29.0600   16.6880 C   0  0  0  0  0  0  0  0  0  0  0  0
   28.2130   29.4440   15.3660 C   0  0  0  0  0  0  0  0  0  0  0  0
   27.4000   28.6690   14.5370 C   0  0  0  0  0  0  0  0  0  0  0  0
   22.5930   26.3650   12.6920 C   0  0  0  0  0  0  0  0  0  0  0  0
   22.0060   27.4210   12.0260 C   0  0  0  0  0  0  0  0  0  0  0  0
   20.6150   27.2090   11.7870 C   0  0  0  0  0  0  0  0  0  0  0  0
   20.1870   25.9970   12.2790 C   0  0  0  0  0  0  0  0  0  0  0  0
   21.4560   25.1260   13.0240 S   0  0  0  0  0  0  0  0  0  0  0  0
   27.1790   22.8290   11.0260 C   0  0  0  0  0  0  0  0  0  0  0  0
   26.4110   21.8340   10.8650 O   0  0  0  0  0  0  0  0  0  0  0  0
   28.3760   22.9420   10.6310 O   0  0  0  0  0  1  0  0  0  0  0  0
   28.5330   24.5650   13.3350 C   0  0  0  0  0  0  0  0  0  0  0  0
   30.1360   26.1810   14.4010 C   0  0  0  0  0  0  0  0  0  0  0  0
   29.3720   25.8160   13.3620 C   0  0  0  0  0  0  0  0  0  0  0  0
   24.5070   24.1034   10.9658 H   0  0  0  0  0  0  0  0  0  0  0  0
   26.5716   26.1914   16.7308 H   0  0  0  0  0  0  0  0  0  0  0  0
   28.0143   27.5829   18.2131 H   0  0  0  0  0  0  0  0  0  0  0  0
   29.0548   29.6756   17.3471 H   0  0  0  0  0  0  0  0  0  0  0  0
   28.6858   30.3572   14.9755 H   0  0  0  0  0  0  0  0  0  0  0  0
   27.2454   28.9693   13.4901 H   0  0  0  0  0  0  0  0  0  0  0  0
   22.5493   28.3252   11.7141 H   0  0  0  0  0  0  0  0  0  0  0  0
   19.9626   27.9287   11.2709 H   0  0  0  0  0  0  0  0  0  0  0  0
   19.1521   25.6322   12.2022 H   0  0  0  0  0  0  0  0  0  0  0  0
   28.4535   24.1705   14.3587 H   0  0  0  0  0  0  0  0  0  0  0  0
   29.0242   23.8453   12.6636 H   0  0  0  0  0  0  0  0  0  0  0  0
   30.7239   27.1094   14.3520 H   0  0  0  0  0  0  0  0  0  0  0  0
   30.1751   25.5521   15.3027 H   0  0  0  0  0  0  0  0  0  0  0  0
   29.3567   26.4685   12.4766 H   0  0  0  0  0  0  0  0  0  0  0  0
  2  1  1  0
  3  2  2  0
  4  3  1  0
  5  4  2  0
  5  1  1  0
  6  5  1  0
  7  6  1  0
  8  7  2  0
  8  4  1  0
  9  6  1  0
 10  9  2  0
 11 10  1  0
 12 11  2  0
 13 12  1  0
 14  9  1  0
 14 13  2  0
 15  8  1  0
 16 15  2  0
 17 16  1  0
 18 17  2  0
 19 18  1  0
 19 15  1  0
 20  2  1  0
 21 20  2  0
 22 20  1  0
 23  1  1  0
 25 24  2  3
 25 23  1  0
  3 26  1  0
 10 27  1  0
 11 28  1  0
 12 29  1  0
 13 30  1  0
 14 31  1  0
 16 32  1  0
 17 33  1  0
 18 34  1  0
 23 35  1  0
 23 36  1  0
 24 37  1  0
 24 38  1  0
 25 39  1  0
M  CHG  1  22  -1
M  END
$$$$
=
     RDKit          3D

 39 40  0  0  0  0  0  0  0  0999 V2000
   18.2890   14.8240    4.9290 N   0  0  0  0  0  4  0  0  0  0  0  0
   19.3580   14.7170    3.8520 C   0  0  0  0  0  0  0  0  0  0  0  0
   20.2880   15.9420    3.8000 C   0  0  0  0  0  0  0  0  0  0  0  0
   20.9290   16.2490    5.1470 N   0  0  0  0  0  4  0  0  0  0  0  0
   20.4130   15.4230    6.3190 C   0  0  0  0  0  0  0  0  0  0  0  0
   18.8950   15.0810    6.3150 C   0  0  0  0  0  0  0  0  0  0  0  0
   16.8940   16.7250    5.8160 C   0  0  0  0  0  0  0  0  0  0  0  0
   17.1150   15.7950    4.6130 C   0  0  2  0  0  0  0  0  0  0  0  0
   15.8270   15.0650    4.2700 C   0  0  0  0  0  0  0  0  0  0  0  0
   14.5700   15.5150    4.7130 C   0  0  0  0  0  0  0  0  0  0  0  0
   13.4130   14.7980    4.4040 C   0  0  0  0  0  0  0  0  0  0  0  0
   13.4930   13.6300    3.6490 C   0  0  0  0  0  0  0  0  0  0  0  0
   14.7290   13.1790    3.1950 C   0  0  0  0  0  0  0  0  0  0  0  0
   15.8890   13.8910    3.5000 C   0  0  0  0  0  0  0  0  0  0  0  0
   20.8580   17.7840    5.4570 C   0  0  0  0  0  0  0  0  0  0  0  0
   22.2030   18.5250    5.3000 C   0  0  0  0  0  0  0  0  0  0  0  0
   22.2800   19.1980    4.2350 O   0  0  0  0  0  0  0  0  0  0  0  0
   23.1040   18.1460    6.0920 O   0  0  0  0  0  1  0  0  0  0  0  0
   17.8465   13.8940    4.9390 H   0  0  0  0  0  0  0  0  0  0  0  0
   19.9674   13.8232    4.0513 H   0  0  0  0  0  0  0  0  0  0  0  0
   18.8417   14.6561    2.8826 H   0  0  0  0  0  0  0  0  0  0  0  0
   21.0848   15.7484    3.0667 H   0  0  0  0  0  0  0  0  0  0  0  0
   19.6774   16.8117    3.5159 H   0  0  0  0  0  0  0  0  0  0  0  0
   21.9128   15.9610    5.0462 H   0  0  0  0  0  0  0  0  0  0  0  0
   20.9690   14.4739    6.3289 H   0  0  0  0  0  0  0  0  0  0  0  0
   20.5662   16.0529    7.2077 H   0  0  0  0  0  0  0  0  0  0  0  0
   18.3548   15.9231    6.7722 H   0  0  0  0  0  0  0  0  0  0  0  0
   18.7919   14.1391    6.8737 H   0  0  0  0  0  0  0  0  0  0  0  0
   17.0290   16.1570    6.7483 H   0  0  0  0  0  0  0  0  0  0  0  0
   17.6212   17.5496    5.7805 H   0  0  0  0  0  0  0  0  0  0  0  0
   15.8736   17.1343    5.7805 H   0  0  0  0  0  0  0  0  0  0  0  0
   17.3922   16.3792    3.7231 H   0  0  0  0  0  0  0  0  0  0  0  0
   14.4984   16.4381    5.3069 H   0  0  0  0  0  0  0  0  0  0  0  0
   12.4350   15.1563    4.7577 H   0  0  0  0  0  0  0  0  0  0  0  0
   12.5798   13.0645    3.4118 H   0  0  0  0  0  0  0  0  0  0  0  0
   14.7911   12.2594    2.5946 H   0  0  0  0  0  0  0  0  0  0  0  0
   16.8617   13.5301    3.1343 H   0  0  0  0  0  0  0  0  0  0  0  0
   20.1303   18.2411    4.7704 H   0  0  0  0  0  0  0  0  0  0  0  0
   20.5663   17.8796    6.5133 H   0  0  0  0  0  0  0  0  0  0  0  0
  2  1  1  0
  3  2  1  0
  4  3  1  0
  5  4  1  0
  6  1  1  0
  6  5  1  0
  8  1  1  0
  8  7  1  0
  9  8  1  0
 10  9  2  0
 11 10  1  0
 12 11  2  0
 13 12  1  0
 14 13  2  0
 14  9  1  0
 15  4  1  0
 16 15  1  0
 17 16  2  0
 18 16  1  0
  1 19  1  0
  2 20  1  0
  2 21  1  0
  3 22  1  0
  3 23  1  0
  4 24  1  0
  5 25  1  0
  5 26  1  0
  6 27  1  0
  6 28  1  0
  7 29  1  0
  7 30  1  0
  7 31  1  0
  8 32  1  6
 10 33  1  0
 11 34  1  0
 12 35  1  0
 13 36  1  0
 14 37  1  0
 15 38  1  0
 15 39  1  0
M  CHG  3   1   1   4   1  18  -1
M  END
$$$$
=
     RDKit          3D

 60 63  0  0  0  0  0  0  0  0999 V2000
   26.7440   24.4050   15.9420 O   0  0  0  0  0  0  0  0  0  0  0  0
   27.1140   25.4740   16.4000 C   0  0  0  0  0  0  0  0  0  0  0  0
   26.3530   26.5880   16.5680 N   0  0  0  0  0  0  0  0  0  0  0  0
   25.0490   26.7390   15.9430 C   0  0  2  0  0  0  0  0  0  0  0  0
   23.9250   26.3640   16.9210 C   0  0  0  0  0  0  0  0  0  0  0  0
   22.7510   26.0440   16.0020 C   0  0  2  0  0  0  0  0  0  0  0  0
   23.4040   25.4050   14.8530 N   0  0  0  0  0  0  0  0  0  0  0  0
   24.7910   25.8200   14.7360 C   0  0  0  0  0  0  0  0  0  0  0  0
   22.6880   24.7650   13.8780 C   0  0  0  0  0  0  0  0  0  0  0  0
   21.4990   24.4860   13.9610 O   0  0  0  0  0  0  0  0  0  0  0  0
   22.0310   27.4010   15.7350 C   0  0  0  0  0  0  0  0  0  0  0  0
   22.0060   27.7900   14.5320 O   0  0  0  0  0  0  0  0  0  0  0  0
   21.6190   27.9940   16.7770 O   0  0  0  0  0  1  0  0  0  0  0  0
   23.4820   24.4300   12.8230 O   0  0  0  0  0  0  0  0  0  0  0  0
   23.2070   24.9410   11.4980 C   0  0  0  0  0  0  0  0  0  0  0  0
   22.0290   24.2060   10.8480 C   0  0  0  0  0  0  0  0  0  0  0  0
   22.9990   26.4600   11.5120 C   0  0  0  0  0  0  0  0  0  0  0  0
   24.4780   24.6310   10.6930 C   0  0  0  0  0  0  0  0  0  0  0  0
   28.3730   25.7370   16.8330 O   0  0  0  0  0  0  0  0  0  0  0  0
   29.4100   24.9680   16.1940 C   0  0  0  0  0  0  0  0  0  0  0  0
   29.9170   25.6540   14.9180 C   0  0  0  0  0  0  0  0  0  0  0  0
   29.4910   27.1200   14.8370 C   0  0  0  0  0  0  0  0  0  0  0  0
   29.8010   28.1550   15.7070 C   0  0  0  0  0  0  0  0  0  0  0  0
   29.2970   29.4260   15.4240 C   0  0  0  0  0  0  0  0  0  0  0  0
   28.5030   29.6460   14.2860 C   0  0  0  0  0  0  0  0  0  0  0  0
   28.2000   28.6000   13.4080 C   0  0  0  0  0  0  0  0  0  0  0  0
   28.7000   27.3380   13.6880 C   0  0  0  0  0  0  0  0  0  0  0  0
   28.5630   26.0910   12.9680 C   0  0  0  0  0  0  0  0  0  0  0  0
   29.2680   25.0830   13.6610 C   0  0  0  0  0  0  0  0  0  0  0  0
   29.3330   23.7850   13.1790 C   0  0  0  0  0  0  0  0  0  0  0  0
   28.6610   23.4900   11.9920 C   0  0  0  0  0  0  0  0  0  0  0  0
   27.9460   24.4850   11.3050 C   0  0  0  0  0  0  0  0  0  0  0  0
   27.8960   25.7960   11.7900 C   0  0  0  0  0  0  0  0  0  0  0  0
   26.7127   27.3514   17.1585 H   0  0  0  0  0  0  0  0  0  0  0  0
   25.0516   27.7931   15.6284 H   0  0  0  0  0  0  0  0  0  0  0  0
   24.2037   25.4871   17.5238 H   0  0  0  0  0  0  0  0  0  0  0  0
   23.7001   27.1620   17.6440 H   0  0  0  0  0  0  0  0  0  0  0  0
   21.9635   25.3696   16.3694 H   0  0  0  0  0  0  0  0  0  0  0  0
   25.4578   24.9458   14.7691 H   0  0  0  0  0  0  0  0  0  0  0  0
   24.9838   26.3345   13.7831 H   0  0  0  0  0  0  0  0  0  0  0  0
   21.3742   23.7975   11.6318 H   0  0  0  0  0  0  0  0  0  0  0  0
   21.4583   24.9086   10.2229 H   0  0  0  0  0  0  0  0  0  0  0  0
   22.4092   23.3846   10.2229 H   0  0  0  0  0  0  0  0  0  0  0  0
   22.9505   26.8139   12.5524 H   0  0  0  0  0  0  0  0  0  0  0  0
   23.8385   26.9498   10.9968 H   0  0  0  0  0  0  0  0  0  0  0  0
   22.0588   26.7061   10.9968 H   0  0  0  0  0  0  0  0  0  0  0  0
   25.3094   24.4282   11.3841 H   0  0  0  0  0  0  0  0  0  0  0  0
   24.3046   23.7488   10.0592 H   0  0  0  0  0  0  0  0  0  0  0  0
   24.7302   25.4940   10.0592 H   0  0  0  0  0  0  0  0  0  0  0  0
   30.2502   24.8505   16.8941 H   0  0  0  0  0  0  0  0  0  0  0  0
   28.9911   23.9898   15.9156 H   0  0  0  0  0  0  0  0  0  0  0  0
   31.0063   25.5090   14.9660 H   0  0  0  0  0  0  0  0  0  0  0  0
   30.4263   27.9794   16.5948 H   0  0  0  0  0  0  0  0  0  0  0  0
   29.5240   30.2641   16.0993 H   0  0  0  0  0  0  0  0  0  0  0  0
   28.1142   30.6547   14.0826 H   0  0  0  0  0  0  0  0  0  0  0  0
   27.5797   28.7749   12.5166 H   0  0  0  0  0  0  0  0  0  0  0  0
   29.8982   23.0095   13.7168 H   0  0  0  0  0  0  0  0  0  0  0  0
   28.6916   22.4666   11.5898 H   0  0  0  0  0  0  0  0  0  0  0  0
   27.4188   24.2299   10.3739 H   0  0  0  0  0  0  0  0  0  0  0  0
   27.3397   26.5752   11.2484 H   0  0  0  0  0  0  0  0  0  0  0  0
  2  1  2  0
  3  2  1  0
  4  3  1  0
  5  4  1  0
  6  5  1  0
  7  6  1  0
  8  7  1  0
  8  4  1  0
  9  7  1  0
 10  9  2  0
 11  6  1  0
 12 11  2  0
 13 11  1  0
 14  9  1  0
 15 14  1  0
 16 15  1  0
 17 15  1  0
 18 15  1  0
 19  2  1  0
 20 19  1  0
 21 20  1  0
 22 21  1  0
 23 22  2  0
 24 23  1  0
 25 24  2  0
 26 25  1  0
 27 22  1  0
 27 26  2  0
 28 27  1  0
 29 28  2  0
 29 21  1  0
 30 29  1  0
 31 30  2  0
 32 31  1  0
 33 32  2  0
 33 28  1  0
  3 34  1  0
  4 35  1  6
  5 36  1  0
  5 37  1  0
  6 38  1  1
  8 39  1  0
  8 40  1  0
 16 41  1  0
 16 42  1  0
 16 43  1  0
 17 44  1  0
 17 45  1  0
 17 46  1  0
 18 47  1  0
 18 48  1  0
 18 49  1  0
 20 50  1  0
 20 51  1  0
 21 52  1  0
 23 53  1  0
 24 54  1  0
 25 55  1  0
 26 56  1  0
 30 57  1  0
 31 58  1  0
 32 59  1  0
 33 60  1  0
M  CHG  1  13  -1
M  END
$$$$
=
     RDKit          3D

 17 17  0  0  0  0  0  0  0  0999 V2000
   13.5490   13.4870    3.5330 C   0  0  0  0  0  0  0  0  0  0  0  0
   13.9910   14.5870    4.2960 C   0  0  0  0  0  0  0  0  0  0  0  0
   15.3430   14.9620    4.3230 C   0  0  0  0  0  0  0  0  0  0  0  0
   15.7920   16.1510    5.1130 C   0  0  0  0  0  0  0  0  0  0  0  0
   16.2510   14.2320    3.5550 C   0  0  0  0  0  0  0  0  0  0  0  0
   15.8300   13.1430    2.7970 C   0  0  0  0  0  0  0  0  0  0  0  0
   14.4940   12.7670    2.7830 C   0  0  0  0  0  0  0  0  0  0  0  0
   16.7210   12.4510    2.0700 F   0  0  0  0  0  0  0  0  0  0  0  0
   17.5480   14.5830    3.5470 F   0  0  0  0  0  0  0  0  0  0  0  0
   11.6990   12.3600    2.5550 O   0  0  0  0  0  1  0  0  0  0  0  0
   12.0860   13.0910    3.5180 C   0  0  0  0  0  0  0  0  0  0  0  0
   11.3630   13.5220    4.4700 O   0  0  0  0  0  0  0  0  0  0  0  0
   13.2606   15.1636    4.8826 H   0  0  0  0  0  0  0  0  0  0  0  0
   15.7086   15.9301    6.1874 H   0  0  0  0  0  0  0  0  0  0  0  0
   16.8390   16.3811    4.8662 H   0  0  0  0  0  0  0  0  0  0  0  0
   15.1585   17.0157    4.8662 H   0  0  0  0  0  0  0  0  0  0  0  0
   14.1740   11.9025    2.1828 H   0  0  0  0  0  0  0  0  0  0  0  0
  2  1  2  0
  3  2  1  0
  4  3  1  0
  5  3  2  0
  6  5  1  0
  7  6  2  0
  7  1  1  0
  8  6  1  0
  9  5  1  0
 11 10  1  0
 11  1  1  0
 12 11  2  0
  2 13  1  0
  4 14  1  0
  4 15  1  0
  4 16  1  0
  7 17  1  0
M  CHG  1  10  -1
M  END
$$$$
=
     RDKit          3D

 34 35  0  0  0  0  0  0  0  0999 V2000
   18.3860   16.1770    5.3790 C   0  0  1  0  0  0  0  0  0  0  0  0
   18.4420   15.2540    6.6160 C   0  0  0  0  0  0  0  0  0  0  0  0
   19.4360   17.3250    5.4080 C   0  0  1  0  0  0  0  0  0  0  0  0
   20.7900   16.5820    5.4270 C   0  0  0  0  0  0  0  0  0  0  0  0
   20.5290   15.3700    4.5190 C   0  0  0  0  0  0  0  0  0  0  0  0
   19.0470   15.5730    4.0930 C   0  0  1  0  0  0  0  0  0  0  0  0
   18.4270   14.3060    3.5330 C   0  0  0  0  0  0  0  0  0  0  0  0
   19.0080   16.7730    3.0990 C   0  0  1  0  0  0  0  0  0  0  0  0
   19.3160   17.9760    4.0070 C   0  0  0  0  0  0  0  0  0  0  0  0
   19.9620   16.6700    2.0510 O   0  0  0  0  0  0  0  0  0  0  0  0
   16.9050   16.6390    5.1870 C   0  0  0  0  0  0  0  0  0  0  0  0
   15.8430   15.6410    5.6620 C   0  0  0  0  0  0  0  0  0  0  0  0
   14.9890   13.9010    4.2880 O   0  0  0  0  0  1  0  0  0  0  0  0
   14.8580   15.1140    4.6120 C   0  0  0  0  0  0  0  0  0  0  0  0
   14.0380   15.9750    4.1840 O   0  0  0  0  0  0  0  0  0  0  0  0
   18.4050   15.8640    7.5306 H   0  0  0  0  0  0  0  0  0  0  0  0
   17.5840   14.5659    6.5992 H   0  0  0  0  0  0  0  0  0  0  0  0
   19.3769   14.6747    6.5992 H   0  0  0  0  0  0  0  0  0  0  0  0
   19.3236   18.0466    6.2306 H   0  0  0  0  0  0  0  0  0  0  0  0
   21.5940   17.2141    5.0220 H   0  0  0  0  0  0  0  0  0  0  0  0
   21.1188   16.3038    6.4392 H   0  0  0  0  0  0  0  0  0  0  0  0
   21.1973   15.3780    3.6453 H   0  0  0  0  0  0  0  0  0  0  0  0
   20.7117   14.4057    5.0158 H   0  0  0  0  0  0  0  0  0  0  0  0
   18.1090   13.6562    4.3616 H   0  0  0  0  0  0  0  0  0  0  0  0
   17.5546   14.5665    2.9157 H   0  0  0  0  0  0  0  0  0  0  0  0
   19.1680   13.7770    2.9157 H   0  0  0  0  0  0  0  0  0  0  0  0
   18.0446   16.8378    2.5721 H   0  0  0  0  0  0  0  0  0  0  0  0
   20.2579   18.4629    3.7141 H   0  0  0  0  0  0  0  0  0  0  0  0
   18.5526   18.7664    3.9574 H   0  0  0  0  0  0  0  0  0  0  0  0
   20.8680   16.5722    2.4379 H   0  0  0  0  0  0  0  0  0  0  0  0
   16.7657   17.5760    5.7461 H   0  0  0  0  0  0  0  0  0  0  0  0
   16.7576   16.7483    4.1024 H   0  0  0  0  0  0  0  0  0  0  0  0
   16.3701   14.7737    6.0862 H   0  0  0  0  0  0  0  0  0  0  0  0
   15.2231   16.2042    6.3751 H   0  0  0  0  0  0  0  0  0  0  0  0
  1  2  1  1
  3  1  1  0
  4  3  1  0
  5  4  1  0
  6  5  1  0
  6  1  1  0
  6  7  1  6
  8  6  1  0
  9  8  1  0
  9  3  1  0
 10  8  1  0
 11  1  1  0
 12 11  1  0
 14 13  1  0
 14 12  1  0
 15 14  2  0
  2 16  1  0
  2 17  1  0
  2 18  1  0
  3 19  1  1
  4 20  1  0
  4 21  1  0
  5 22  1  0
  5 23  1  0
  7 24  1  0
  7 25  1  0
  7 26  1  0
  8 27  1  6
  9 28  1  0
  9 29  1  0
 10 30  1  0
 11 31  1  0
 11 32  1  0
 12 33  1  0
 12 34  1  0
M  CHG  1  13  -1
M  END
$$$$
=
     RDKit          3D

 29 30  0  0  0  0  0  0  0  0999 V2000
   15.5730   14.3420    4.1240 C   0  0  0  0  0  0  0  0  0  0  0  0
   14.6110   13.3930    3.7210 C   0  0  0  0  0  0  0  0  0  0  0  0
   14.9290   12.3660    2.8320 C   0  0  0  0  0  0  0  0  0  0  0  0
   16.2220   12.2660    2.3250 C   0  0  0  0  0  0  0  0  0  0  0  0
   17.1940   13.1840    2.7220 C   0  0  0  0  0  0  0  0  0  0  0  0
   16.8810   14.2140    3.6270 C   0  0  0  0  0  0  0  0  0  0  0  0
   14.5930   16.4630    4.4890 O   0  0  0  0  0  1  0  0  0  0  0  0
   15.1440   15.4590    5.0360 C   0  0  0  0  0  0  0  0  0  0  0  0
   15.3770   15.3160    6.2750 O   0  0  0  0  0  0  0  0  0  0  0  0
   17.9750   15.1160    4.0690 C   0  0  0  0  0  0  0  0  0  0  0  0
   19.1610   15.0480    3.5460 N   0  0  0  0  0  0  0  0  0  0  0  0
   20.0670   15.9700    3.9940 N   0  0  0  0  0  0  0  0  0  0  0  0
   20.3010   17.1720    3.3540 C   0  0  0  0  0  0  0  0  0  0  0  0
   19.6350   17.5480    2.0900 C   0  0  0  0  0  0  0  0  0  0  0  0
   21.1960   17.8740    4.0150 N   0  0  0  0  0  0  0  0  0  0  0  0
   21.5290   17.1680    5.1410 N   0  0  0  0  0  0  0  0  0  0  0  0
   20.8260   16.0480    5.1520 C   0  0  0  0  0  0  0  0  0  0  0  0
   20.8000   15.0710    6.2660 C   0  0  0  0  0  0  0  0  0  0  0  0
   13.5870   13.4641    4.1164 H   0  0  0  0  0  0  0  0  0  0  0  0
   14.1609   11.6377    2.5326 H   0  0  0  0  0  0  0  0  0  0  0  0
   16.4759   11.4660    1.6140 H   0  0  0  0  0  0  0  0  0  0  0  0
   18.2158   13.1016    2.3232 H   0  0  0  0  0  0  0  0  0  0  0  0
   17.7759   15.8577    4.8566 H   0  0  0  0  0  0  0  0  0  0  0  0
   18.6970   18.0775    2.3132 H   0  0  0  0  0  0  0  0  0  0  0  0
   20.2976   18.2053    1.5078 H   0  0  0  0  0  0  0  0  0  0  0  0
   19.4145   16.6411    1.5078 H   0  0  0  0  0  0  0  0  0  0  0  0
   20.8143   15.6086    7.2256 H   0  0  0  0  0  0  0  0  0  0  0  0
   19.8854   14.4635    6.1996 H   0  0  0  0  0  0  0  0  0  0  0  0
   21.6810   14.4157    6.1996 H   0  0  0  0  0  0  0  0  0  0  0  0
  2  1  2  0
  3  2  1  0
  4  3  2  0
  5  4  1  0
  6  1  1  0
  6  5  2  0
  8  1  1  0
  8  7  1  0
  9  8  2  0
 10  6  1  0
 11 10  2  0
 12 11  1  0
 13 12  1  0
 14 13  1  0
 15 13  2  0
 16 15  1  0
 17 12  1  0
 17 16  2  0
 18 17  1  0
  2 19  1  0
  3 20  1  0
  4 21  1  0
  5 22  1  0
 10 23  1  0
 14 24  1  0
 14 25  1  0
 14 26  1  0
 18 27  1  0
 18 28  1  0
 18 29  1  0
M  CHG  1   7  -1
M  END
$$$$
=
     RDKit          3D

 27 28  0  0  0  0  0  0  0  0999 V2000
   19.5950   16.6600    4.6070 C   0  0  0  0  0  0  0  0  0  0  0  0
   19.8530   18.0510    5.2990 C   0  0  0  0  0  0  0  0  0  0  0  0
   20.7630   18.4420    4.1230 C   0  0  0  0  0  0  0  0  0  0  0  0
   20.0730   17.3620    3.2760 C   0  0  0  0  0  0  0  0  0  0  0  0
   18.0450   16.1230    4.5390 C   0  0  0  0  0  0  0  0  0  0  0  0
   16.9780   16.7040    5.2590 C   0  0  0  0  0  0  0  0  0  0  0  0
   15.6600   16.2270    5.1890 C   0  0  0  0  0  0  0  0  0  0  0  0
   15.3540   15.1290    4.3980 C   0  0  0  0  0  0  0  0  0  0  0  0
   16.3710   14.5090    3.6850 C   0  0  0  0  0  0  0  0  0  0  0  0
   17.6780   14.9990    3.7640 C   0  0  0  0  0  0  0  0  0  0  0  0
   18.6160   14.3290    3.0770 F   0  0  0  0  0  0  0  0  0  0  0  0
   20.6150   15.5660    5.0020 C   0  0  0  0  0  0  0  0  0  0  0  0
   19.6610   14.2590    6.7360 O   0  0  0  0  0  1  0  0  0  0  0  0
   20.5500   15.1070    6.4540 C   0  0  0  0  0  0  0  0  0  0  0  0
   21.3890   15.6680    7.2190 O   0  0  0  0  0  0  0  0  0  0  0  0
   18.9550   18.6776    5.4038 H   0  0  0  0  0  0  0  0  0  0  0  0
   20.2161   18.1065    6.3359 H   0  0  0  0  0  0  0  0  0  0  0  0
   20.6162   19.4689    3.7570 H   0  0  0  0  0  0  0  0  0  0  0  0
   21.8572   18.4642    4.2341 H   0  0  0  0  0  0  0  0  0  0  0  0
   19.2552   17.7369    2.6430 H   0  0  0  0  0  0  0  0  0  0  0  0
   20.6308   16.8021    2.5109 H   0  0  0  0  0  0  0  0  0  0  0  0
   17.1896   17.5696    5.9039 H   0  0  0  0  0  0  0  0  0  0  0  0
   14.8659   16.7259    5.7639 H   0  0  0  0  0  0  0  0  0  0  0  0
   14.3212   14.7554    4.3368 H   0  0  0  0  0  0  0  0  0  0  0  0
   16.1487   13.6328    3.0583 H   0  0  0  0  0  0  0  0  0  0  0  0
   20.4388   14.6899    4.3606 H   0  0  0  0  0  0  0  0  0  0  0  0
   21.6098   16.0165    4.8702 H   0  0  0  0  0  0  0  0  0  0  0  0
  2  1  1  0
  3  2  1  0
  4  3  1  0
  4  1  1  0
  5  1  1  0
  6  5  2  0
  7  6  1  0
  8  7  2  0
  9  8  1  0
 10  9  2  0
 10  5  1  0
 11 10  1  0
 12  1  1  0
 14 12  1  0
 14 13  1  0
 15 14  2  0
  2 16  1  0
  2 17  1  0
  3 18  1  0
  3 19  1  0
  4 20  1  0
  4 21  1  0
  6 22  1  0
  7 23  1  0
  8 24  1  0
  9 25  1  0
 12 26  1  0
 12 27  1  0
M  CHG  1  13  -1
M  END
$$$$
=
     RDKit          3D

 38 40  0  0  0  0  0  0  0  0999 V2000
   26.6800   25.8040   12.2290 C   0  0  0  0  0  0  0  0  0  0  0  0
   27.1050   26.4580   13.3930 C   0  0  0  0  0  0  0  0  0  0  0  0
   26.2400   26.6770   14.4930 C   0  0  0  0  0  0  0  0  0  0  0  0
   24.9110   26.2100   14.3840 C   0  0  0  0  0  0  0  0  0  0  0  0
   24.4860   25.5550   13.2150 C   0  0  0  0  0  0  0  0  0  0  0  0
   25.3550   25.3470   12.1400 C   0  0  0  0  0  0  0  0  0  0  0  0
   24.0140   26.4010   15.4470 C   0  0  0  0  0  0  0  0  0  0  0  0
   24.3930   27.0490   16.6300 C   0  0  0  0  0  0  0  0  0  0  0  0
   25.7120   27.5100   16.7340 C   0  0  0  0  0  0  0  0  0  0  0  0
   26.6420   27.3380   15.6910 C   0  0  0  0  0  0  0  0  0  0  0  0
   28.0080   27.8530   15.8850 C   0  0  0  0  0  0  0  0  0  0  0  0
   28.9690   27.0940   16.5690 C   0  0  0  0  0  0  0  0  0  0  0  0
   30.2620   27.5860   16.7610 C   0  0  0  0  0  0  0  0  0  0  0  0
   30.6090   28.8430   16.2690 C   0  0  0  0  0  0  0  0  0  0  0  0
   29.6670   29.6070   15.5820 C   0  0  0  0  0  0  0  0  0  0  0  0
   28.3740   29.1130   15.3900 C   0  0  0  0  0  0  0  0  0  0  0  0
   23.4040   27.2430   17.7620 C   0  0  0  0  0  0  0  0  0  0  0  0
   22.3410   27.8870   17.4950 O   0  0  0  0  0  0  0  0  0  0  0  0
   23.7110   26.7490   18.8910 O   0  0  0  0  0  1  0  0  0  0  0  0
   28.2080   24.3500   11.1080 C   0  0  0  0  0  0  0  0  0  0  0  0
   27.4780   25.5680   11.1350 O   0  0  0  0  0  0  0  0  0  0  0  0
   25.0080   24.7160   10.9700 O   0  0  0  0  0  0  0  0  0  0  0  0
   23.7510   24.0560   10.9340 C   0  0  0  0  0  0  0  0  0  0  0  0
   28.1443   26.8129   13.4545 H   0  0  0  0  0  0  0  0  0  0  0  0
   23.4477   25.1986   13.1447 H   0  0  0  0  0  0  0  0  0  0  0  0
   22.9829   26.0309   15.3481 H   0  0  0  0  0  0  0  0  0  0  0  0
   26.0295   28.0201   17.6554 H   0  0  0  0  0  0  0  0  0  0  0  0
   28.7014   26.1006   16.9584 H   0  0  0  0  0  0  0  0  0  0  0  0
   31.0062   26.9816   17.3003 H   0  0  0  0  0  0  0  0  0  0  0  0
   31.6263   29.2322   16.4228 H   0  0  0  0  0  0  0  0  0  0  0  0
   29.9412   30.5980   15.1913 H   0  0  0  0  0  0  0  0  0  0  0  0
   27.6354   29.7189   14.8448 H   0  0  0  0  0  0  0  0  0  0  0  0
   28.4066   24.0186   12.1379 H   0  0  0  0  0  0  0  0  0  0  0  0
   27.6210   23.5823   10.5826 H   0  0  0  0  0  0  0  0  0  0  0  0
   29.1618   24.5057   10.5826 H   0  0  0  0  0  0  0  0  0  0  0  0
   23.4032   23.8734   11.9615 H   0  0  0  0  0  0  0  0  0  0  0  0
   23.0206   24.6869   10.4063 H   0  0  0  0  0  0  0  0  0  0  0  0
   23.8556   23.0965   10.4063 H   0  0  0  0  0  0  0  0  0  0  0  0
  2  1  2  0
  3  2  1  0
  4  3  2  0
  5  4  1  0
  6  5  2  0
  6  1  1  0
  7  4  1  0
  8  7  2  0
  9  8  1  0
 10  3  1  0
 10  9  2  0
 11 10  1  0
 12 11  2  0
 13 12  1  0
 14 13  2  0
 15 14  1  0
 16 15  2  0
 16 11  1  0
 17  8  1  0
 18 17  2  0
 19 17  1  0
 21  1  1  0
 21 20  1  0
 22  6  1  0
 23 22  1  0
  2 24  1  0
  5 25  1  0
  7 26  1  0
  9 27  1  0
 12 28  1  0
 13 29  1  0
 14 30  1  0
 15 31  1  0
 16 32  1  0
 20 33  1  0
 20 34  1  0
 20 35  1  0
 23 36  1  0
 23 37  1  0
 23 38  1  0
M  CHG  1  19  -1
M  END
$$$$
=
     RDKit          3D

 37 38  0  0  0  0  0  0  0  0999 V2000
   15.0250   13.3560    3.2900 C   0  0  0  0  0  0  0  0  0  0  0  0
   14.4990   14.3810    4.0760 C   0  0  0  0  0  0  0  0  0  0  0  0
   15.3320   15.3600    4.6330 C   0  0  0  0  0  0  0  0  0  0  0  0
   16.7200   15.3380    4.4200 C   0  0  0  0  0  0  0  0  0  0  0  0
   17.2270   14.3090    3.6040 C   0  0  0  0  0  0  0  0  0  0  0  0
   16.3950   13.3300    3.0500 C   0  0  0  0  0  0  0  0  0  0  0  0
   17.6640   16.3880    4.9980 C   0  0  2  0  0  0  0  0  0  0  0  0
   17.0790   17.2640    6.1140 C   0  0  0  0  0  0  0  0  0  0  0  0
   18.1730   17.2430    3.9460 N   0  0  0  0  0  0  0  0  0  0  0  0
   19.5380   17.1160    3.7930 C   0  0  0  0  0  0  0  0  0  0  0  0
   20.1490   17.6680    2.8910 O   0  0  0  0  0  0  0  0  0  0  0  0
   20.0200   16.3270    4.7930 N   0  0  0  0  0  0  0  0  0  0  0  0
   18.9930   15.7970    5.5280 C   0  0  0  0  0  0  0  0  0  0  0  0
   19.0850   15.0250    6.4770 O   0  0  0  0  0  0  0  0  0  0  0  0
   21.3920   15.8370    4.8450 C   0  0  0  0  0  0  0  0  0  0  0  0
   22.4240   16.8530    5.3780 C   0  0  0  0  0  0  0  0  0  0  0  0
   22.5700   16.8430    6.6350 O   0  0  0  0  0  0  0  0  0  0  0  0
   23.0090   17.5720    4.5150 O   0  0  0  0  0  1  0  0  0  0  0  0
   14.1090   12.4560    2.8190 O   0  0  0  0  0  0  0  0  0  0  0  0
   13.0040   12.1860    3.6700 C   0  0  0  0  0  0  0  0  0  0  0  0
   11.2880   11.4480    2.1000 N   0  0  0  0  0  0  0  0  0  0  0  0
   11.6720   12.4400    2.9640 C   0  0  0  0  0  0  0  0  0  0  0  0
   10.9660   13.4340    3.1060 O   0  0  0  0  0  0  0  0  0  0  0  0
   13.4154   14.4213    4.2611 H   0  0  0  0  0  0  0  0  0  0  0  0
   14.8916   16.1592    5.2474 H   0  0  0  0  0  0  0  0  0  0  0  0
   18.3066   14.2737    3.3963 H   0  0  0  0  0  0  0  0  0  0  0  0
   16.8260   12.5364    2.4220 H   0  0  0  0  0  0  0  0  0  0  0  0
   17.3581   16.8461    7.0925 H   0  0  0  0  0  0  0  0  0  0  0  0
   17.4767   18.2857    6.0247 H   0  0  0  0  0  0  0  0  0  0  0  0
   15.9829   17.2881    6.0247 H   0  0  0  0  0  0  0  0  0  0  0  0
   17.5856   17.8713    3.3793 H   0  0  0  0  0  0  0  0  0  0  0  0
   21.4145   14.9522    5.4982 H   0  0  0  0  0  0  0  0  0  0  0  0
   21.6816   15.6185    3.8065 H   0  0  0  0  0  0  0  0  0  0  0  0
   13.0455   11.1329    3.9850 H   0  0  0  0  0  0  0  0  0  0  0  0
   13.0664   12.8594    4.5375 H   0  0  0  0  0  0  0  0  0  0  0  0
   10.4035   11.5326    1.5791 H   0  0  0  0  0  0  0  0  0  0  0  0
   11.8839   10.6178    1.9715 H   0  0  0  0  0  0  0  0  0  0  0  0
  2  1  2  0
  3  2  1  0
  4  3  2  0
  5  4  1  0
  6  1  1  0
  6  5  2  0
  7  4  1  0
  7  8  1  1
  9  7  1  0
 10  9  1  0
 11 10  2  0
 12 10  1  0
 13 12  1  0
 13  7  1  0
 14 13  2  0
 15 12  1  0
 16 15  1  0
 17 16  2  0
 18 16  1  0
 19  1  1  0
 20 19  1  0
 22 21  1  0
 22 20  1  0
 23 22  2  0
  2 24  1  0
  3 25  1  0
  5 26  1  0
  6 27  1  0
  8 28  1  0
  8 29  1  0
  8 30  1  0
  9 31  1  0
 15 32  1  0
 15 33  1  0
 20 34  1  0
 20 35  1  0
 21 36  1  0
 21 37  1  0
M  CHG  1  18  -1
M  END
$$$$
=
     RDKit          3D

 24 24  0  0  0  0  0  0  0  0999 V2000
   19.9990   15.6300    3.6740 N   0  0  0  0  0  0  0  0  0  0  0  0
   18.9150   14.4420    4.1590 S   0  0  0  0  0  6  0  0  0  0  0  0
   19.2580   14.1480    5.5450 O   0  0  0  0  0  0  0  0  0  0  0  0
   18.8840   13.3550    3.2020 O   0  0  0  0  0  0  0  0  0  0  0  0
   17.2640   15.0890    4.3190 C   0  0  0  0  0  0  0  0  0  0  0  0
   16.7100   16.0570    5.1360 C   0  0  0  0  0  0  0  0  0  0  0  0
   15.3060   16.2060    4.9390 C   0  0  0  0  0  0  0  0  0  0  0  0
   14.8280   15.3300    3.9910 C   0  0  0  0  0  0  0  0  0  0  0  0
   16.0660   14.3370    3.3480 S   0  0  0  0  0  0  0  0  0  0  0  0
   20.2670   16.8040    4.5760 C   0  0  1  0  0  0  0  0  0  0  0  0
   21.6040   16.9320    5.3470 C   0  0  0  0  0  0  0  0  0  0  0  0
   21.6230   16.5220    6.5410 O   0  0  0  0  0  0  0  0  0  0  0  0
   22.5470   17.4900    4.7030 O   0  0  0  0  0  1  0  0  0  0  0  0
   20.0230   18.0910    3.7730 C   0  0  0  0  0  0  0  0  0  0  0  0
   18.9740   17.7050    1.6840 O   0  0  0  0  0  1  0  0  0  0  0  0
   20.0780   17.9710    2.2480 C   0  0  0  0  0  0  0  0  0  0  0  0
   21.2320   18.0460    1.7220 O   0  0  0  0  0  0  0  0  0  0  0  0
   20.9030   15.1630    3.5142 H   0  0  0  0  0  0  0  0  0  0  0  0
   17.2899   16.6483    5.8599 H   0  0  0  0  0  0  0  0  0  0  0  0
   14.6808   16.9325    5.4788 H   0  0  0  0  0  0  0  0  0  0  0  0
   13.7736   15.2743    3.6824 H   0  0  0  0  0  0  0  0  0  0  0  0
   19.5681   16.6181    5.4049 H   0  0  0  0  0  0  0  0  0  0  0  0
   19.0250   18.4674    4.0419 H   0  0  0  0  0  0  0  0  0  0  0  0
   20.8540   18.7603    4.0403 H   0  0  0  0  0  0  0  0  0  0  0  0
  2  1  1  0
  3  2  2  0
  4  2  2  0
  5  2  1  0
  6  5  2  0
  7  6  1  0
  8  7  2  0
  9  8  1  0
  9  5  1  0
 10  1  1  0
 11 10  1  0
 12 11  2  0
 13 11  1  0
 14 10  1  0
 16 15  1  0
 16 14  1  0
 17 16  2  0
  1 18  1  0
  6 19  1  0
  7 20  1  0
  8 21  1  0
 10 22  1  1
 14 23  1  0
 14 24  1  0
M  CHG  2  13  -1  15  -1
M  END
$$$$
=
     RDKit          3D

 36 37  0  0  0  0  0  0  0  0999 V2000
   28.5930   28.3670   16.3890 N   0  0  0  0  0  0  0  0  0  0  0  0
   27.8690   27.7610   15.3290 C   0  0  0  0  0  0  0  0  0  0  0  0
   28.5290   27.1890   14.3540 N   0  0  0  0  0  0  0  0  0  0  0  0
   27.8360   26.4920   13.3580 C   0  0  0  0  0  0  0  0  0  0  0  0
   28.6050   25.8840   12.3570 C   0  0  0  0  0  0  0  0  0  0  0  0
   28.0100   25.1170   11.3570 C   0  0  0  0  0  0  0  0  0  0  0  0
   26.6310   24.9450   11.3580 C   0  0  0  0  0  0  0  0  0  0  0  0
   25.8520   25.5500   12.3480 C   0  0  0  0  0  0  0  0  0  0  0  0
   26.4420   26.3340   13.3520 C   0  0  0  0  0  0  0  0  0  0  0  0
   25.6790   26.9980   14.3480 N   0  0  0  0  0  0  0  0  0  0  0  0
   26.3020   27.7830   15.3100 C   0  0  0  0  0  0  0  0  0  0  0  0
   25.7070   28.5160   16.0970 O   0  0  0  0  0  0  0  0  0  0  0  0
   29.0770   28.1130   18.8010 C   0  0  0  0  0  0  0  0  0  0  0  0
   28.0120   28.3610   17.7420 C   0  0  0  0  0  0  0  0  0  0  0  0
   30.0640   28.3150   16.3270 C   0  0  0  0  0  0  0  0  0  0  0  0
   30.6860   29.6470   15.9350 C   0  0  0  0  0  0  0  0  0  0  0  0
   24.2160   26.8290   14.4130 C   0  0  0  0  0  0  0  0  0  0  0  0
   23.7170   25.7480   15.3990 C   0  0  0  0  0  0  0  0  0  0  0  0
   23.4060   26.1490   16.5580 O   0  0  0  0  0  0  0  0  0  0  0  0
   23.6800   24.5740   14.9210 O   0  0  0  0  0  1  0  0  0  0  0  0
   29.6973   26.0143   12.3604 H   0  0  0  0  0  0  0  0  0  0  0  0
   28.6265   24.6518   10.5738 H   0  0  0  0  0  0  0  0  0  0  0  0
   26.1526   24.3326   10.5795 H   0  0  0  0  0  0  0  0  0  0  0  0
   24.7610   25.4099   12.3405 H   0  0  0  0  0  0  0  0  0  0  0  0
   28.6308   28.2169   19.8011 H   0  0  0  0  0  0  0  0  0  0  0  0
   29.4812   27.0967   18.6836 H   0  0  0  0  0  0  0  0  0  0  0  0
   29.8886   28.8462   18.6836 H   0  0  0  0  0  0  0  0  0  0  0  0
   27.2543   27.5659   17.8029 H   0  0  0  0  0  0  0  0  0  0  0  0
   27.5592   29.3458   17.9294 H   0  0  0  0  0  0  0  0  0  0  0  0
   30.4473   28.0261   17.3167 H   0  0  0  0  0  0  0  0  0  0  0  0
   30.3367   27.5822   15.5533 H   0  0  0  0  0  0  0  0  0  0  0  0
   30.9490   30.2101   16.8426 H   0  0  0  0  0  0  0  0  0  0  0  0
   31.5932   29.4669   15.3395 H   0  0  0  0  0  0  0  0  0  0  0  0
   29.9656   30.2270   15.3395 H   0  0  0  0  0  0  0  0  0  0  0  0
   23.7761   27.7914   14.7134 H   0  0  0  0  0  0  0  0  0  0  0  0
   23.9047   26.4939   13.4126 H   0  0  0  0  0  0  0  0  0  0  0  0
  2  1  1  0
  3  2  2  0
  4  3  1  0
  5  4  2  0
  6  5  1  0
  7  6  2  0
  8  7  1  0
  9  8  2  0
  9  4  1  0
 10  9  1  0
 11 10  1  0
 11  2  1  0
 12 11  2  0
 14 13  1  0
 14  1  1  0
 15  1  1  0
 16 15  1  0
 17 10  1  0
 18 17  1  0
 19 18  2  0
 20 18  1  0
  5 21  1  0
  6 22  1  0
  7 23  1  0
  8 24  1  0
 13 25  1  0
 13 26  1  0
 13 27  1  0
 14 28  1  0
 14 29  1  0
 15 30  1  0
 15 31  1  0
 16 32  1  0
 16 33  1  0
 16 34  1  0
 17 35  1  0
 17 36  1  0
M  CHG  1  20  -1
M  END
$$$$
=
     RDKit          3D

 35 35  0  0  0  0  0  0  0  0999 V2000
   16.9110   15.4530    7.3910 O   0  0  0  0  0  0  0  0  0  0  0  0
   17.2030   15.7120    6.2250 C   0  0  0  0  0  0  0  0  0  0  0  0
   18.4440   15.4710    5.6750 N   0  0  0  0  0  0  0  0  0  0  0  0
   16.1910   16.3030    5.2600 C   0  0  0  0  0  0  0  0  0  0  0  0
   15.3820   15.2390    4.5980 C   0  0  0  0  0  0  0  0  0  0  0  0
   14.0140   15.0590    4.6880 C   0  0  0  0  0  0  0  0  0  0  0  0
   13.5300   13.7080    3.7530 S   0  0  0  0  0  0  0  0  0  0  0  0
   15.1650   13.4640    3.2870 C   0  0  0  0  0  0  0  0  0  0  0  0
   16.0280   14.3270    3.7750 N   0  0  0  0  0  0  0  0  0  0  0  0
   15.5220   12.3360    2.3850 C   0  0  0  0  0  0  0  0  0  0  0  0
   19.5670   15.0520    6.4900 C   0  0  0  0  0  0  0  0  0  0  0  0
   20.8900   15.6510    6.0180 C   0  0  0  0  0  0  0  0  0  0  0  0
   20.8690   17.1820    5.9800 C   0  0  0  0  0  0  0  0  0  0  0  0
   21.1620   17.7060    4.5720 C   0  0  0  0  0  0  0  0  0  0  0  0
   19.8850   17.9880    3.7860 C   0  0  0  0  0  0  0  0  0  0  0  0
   19.6260   17.0800    2.5800 C   0  0  0  0  0  0  0  0  0  0  0  0
   19.6360   17.6400    1.4490 O   0  0  0  0  0  0  0  0  0  0  0  0
   19.4350   15.8650    2.8730 O   0  0  0  0  0  1  0  0  0  0  0  0
   18.5763   15.5916    4.6607 H   0  0  0  0  0  0  0  0  0  0  0  0
   15.5166   16.9721    5.8145 H   0  0  0  0  0  0  0  0  0  0  0  0
   16.7377   16.8558    4.4818 H   0  0  0  0  0  0  0  0  0  0  0  0
   13.3338   15.6928    5.2760 H   0  0  0  0  0  0  0  0  0  0  0  0
   15.7997   11.4585    2.9874 H   0  0  0  0  0  0  0  0  0  0  0  0
   14.6588   12.0867    1.7503 H   0  0  0  0  0  0  0  0  0  0  0  0
   16.3714   12.6287    1.7503 H   0  0  0  0  0  0  0  0  0  0  0  0
   19.3870   15.3690    7.5278 H   0  0  0  0  0  0  0  0  0  0  0  0
   19.6483   13.9580    6.4086 H   0  0  0  0  0  0  0  0  0  0  0  0
   21.6867   15.3275    6.7040 H   0  0  0  0  0  0  0  0  0  0  0  0
   21.0661   15.2969    4.9916 H   0  0  0  0  0  0  0  0  0  0  0  0
   19.8757   17.5349    6.2945 H   0  0  0  0  0  0  0  0  0  0  0  0
   21.6479   17.5575    6.6599 H   0  0  0  0  0  0  0  0  0  0  0  0
   21.7409   18.6378    4.6539 H   0  0  0  0  0  0  0  0  0  0  0  0
   21.7265   16.9307    4.0333 H   0  0  0  0  0  0  0  0  0  0  0  0
   19.0347   17.8824    4.4758 H   0  0  0  0  0  0  0  0  0  0  0  0
   20.0069   19.0008    3.3746 H   0  0  0  0  0  0  0  0  0  0  0  0
  2  1  2  0
  3  2  1  0
  4  2  1  0
  5  4  1  0
  6  5  2  0
  7  6  1  0
  8  7  1  0
  9  8  2  0
  9  5  1  0
 10  8  1  0
 11  3  1  0
 12 11  1  0
 13 12  1  0
 14 13  1  0
 15 14  1  0
 16 15  1  0
 17 16  2  0
 18 16  1  0
  3 19  1  0
  4 20  1  0
  4 21  1  0
  6 22  1  0
 10 23  1  0
 10 24  1  0
 10 25  1  0
 11 26  1  0
 11 27  1  0
 12 28  1  0
 12 29  1  0
 13 30  1  0
 13 31  1  0
 14 32  1  0
 14 33  1  0
 15 34  1  0
 15 35  1  0
M  CHG  1  18  -1
M  END
$$$$
=
     RDKit          3D

 41 42  0  0  0  0  0  0  0  0999 V2000
   29.6810   26.7700   16.2620 C   0  0  1  0  0  0  0  0  0  0  0  0
   29.7620   27.4480   17.6520 C   0  0  0  0  0  0  0  0  0  0  0  0
   28.7690   28.6020   17.7550 C   0  0  0  0  0  0  0  0  0  0  0  0
   28.9930   29.6470   16.6580 C   0  0  0  0  0  0  0  0  0  0  0  0
   29.8990   29.1350   15.5400 C   0  0  0  0  0  0  0  0  0  0  0  0
   29.5750   27.7620   15.1700 N   0  0  0  0  0  0  0  0  0  0  0  0
   28.5980   27.6200   14.1590 C   0  0  0  0  0  0  0  0  0  0  0  0
   27.8950   28.5780   13.8400 O   0  0  0  0  0  0  0  0  0  0  0  0
   28.4890   26.2410   13.4990 C   0  0  2  0  0  0  0  0  0  0  0  0
   28.2810   26.3660   11.9820 C   0  0  0  0  0  0  0  0  0  0  0  0
   28.0760   25.0270   11.3260 C   0  0  0  0  0  0  0  0  0  0  0  0
   27.7510   23.9240   12.0180 C   0  0  0  0  0  0  0  0  0  0  0  0
   27.5010   23.9240   13.5070 C   0  0  0  0  0  0  0  0  0  0  0  0
   27.4360   25.3270   14.1450 C   0  0  2  0  0  0  0  0  0  0  0  0
   25.9480   25.7210   14.1110 C   0  0  0  0  0  0  0  0  0  0  0  0
   25.5480   26.3780   13.1130 O   0  0  0  0  0  0  0  0  0  0  0  0
   25.2780   25.2900   15.0990 O   0  0  0  0  0  1  0  0  0  0  0  0
   30.4250   24.2970   16.1680 C   0  0  0  0  0  0  0  0  0  0  0  0
   30.8320   25.7620   16.0810 C   0  0  0  0  0  0  0  0  0  0  0  0
   28.7489   26.1883   16.2085 H   0  0  0  0  0  0  0  0  0  0  0  0
   29.5315   26.7044   18.4291 H   0  0  0  0  0  0  0  0  0  0  0  0
   30.7782   27.8461   17.7896 H   0  0  0  0  0  0  0  0  0  0  0  0
   27.7483   28.2024   17.6625 H   0  0  0  0  0  0  0  0  0  0  0  0
   28.9158   29.0925   18.7286 H   0  0  0  0  0  0  0  0  0  0  0  0
   28.0188   29.9195   16.2259 H   0  0  0  0  0  0  0  0  0  0  0  0
   29.4876   30.5149   17.1186 H   0  0  0  0  0  0  0  0  0  0  0  0
   29.7763   29.7805   14.6578 H   0  0  0  0  0  0  0  0  0  0  0  0
   30.9373   29.1568   15.9026 H   0  0  0  0  0  0  0  0  0  0  0  0
   29.4542   25.7435   13.6747 H   0  0  0  0  0  0  0  0  0  0  0  0
   27.3954   26.9914   11.7958 H   0  0  0  0  0  0  0  0  0  0  0  0
   29.1869   26.8184   11.5522 H   0  0  0  0  0  0  0  0  0  0  0  0
   28.1974   24.9493   10.2355 H   0  0  0  0  0  0  0  0  0  0  0  0
   27.6623   22.9725   11.4732 H   0  0  0  0  0  0  0  0  0  0  0  0
   26.5432   23.4167   13.6945 H   0  0  0  0  0  0  0  0  0  0  0  0
   28.3575   23.4102   13.9679 H   0  0  0  0  0  0  0  0  0  0  0  0
   27.7313   25.3996   15.2021 H   0  0  0  0  0  0  0  0  0  0  0  0
   30.3429   24.0014   17.2243 H   0  0  0  0  0  0  0  0  0  0  0  0
   29.4537   24.1562   15.6712 H   0  0  0  0  0  0  0  0  0  0  0  0
   31.1845   23.6753   15.6712 H   0  0  0  0  0  0  0  0  0  0  0  0
   31.5807   25.9551   16.8634 H   0  0  0  0  0  0  0  0  0  0  0  0
   31.2160   25.9141   15.0615 H   0  0  0  0  0  0  0  0  0  0  0  0
  2  1  1  0
  3  2  1  0
  4  3  1  0
  5  4  1  0
  6  1  1  0
  6  5  1  0
  7  6  1  0
  8  7  2  0
  9  7  1  0
 10  9  1  0
 11 10  1  0
 12 11  2  0
 13 12  1  0
 14 13  1  0
 14  9  1  0
 15 14  1  0
 16 15  2  0
 17 15  1  0
 19 18  1  0
 19  1  1  0
  1 20  1  1
  2 21  1  0
  2 22  1  0
  3 23  1  0
  3 24  1  0
  4 25  1  0
  4 26  1  0
  5 27  1  0
  5 28  1  0
  9 29  1  6
 10 30  1  0
 10 31  1  0
 11 32  1  0
 12 33  1  0
 13 34  1  0
 13 35  1  0
 14 36  1  1
 18 37  1  0
 18 38  1  0
 18 39  1  0
 19 40  1  0
 19 41  1  0
M  CHG  1  17  -1
M  END
$$$$
=
     RDKit          3D

 46 46  0  0  0  0  0  0  0  0999 V2000
   16.3510   15.3140    5.0310 C   0  0  2  0  0  0  0  0  0  0  0  0
   16.7360   15.9780    6.3600 C   0  0  0  0  0  0  0  0  0  0  0  0
   16.5290   15.2630    7.3840 O   0  0  0  0  0  0  0  0  0  0  0  0
   17.2400   17.1310    6.2910 O   0  0  0  0  0  1  0  0  0  0  0  0
   17.3710   15.4570    3.8930 C   0  0  0  0  0  0  0  0  0  0  0  0
   18.5520   14.4850    3.9910 C   0  0  0  0  0  0  0  0  0  0  0  0
   20.1670   15.2240    6.2630 O   0  0  0  0  0  0  0  0  0  0  0  0
   20.4800   15.5370    5.1250 C   0  0  0  0  0  0  0  0  0  0  0  0
   19.8330   15.1590    3.9930 N   0  0  0  0  0  0  0  0  0  0  0  0
   21.5270   16.3240    4.7820 O   0  0  0  0  0  0  0  0  0  0  0  0
   21.3490   17.7460    4.5730 C   0  0  0  0  0  0  0  0  0  0  0  0
   20.3750   18.3440    5.5930 C   0  0  0  0  0  0  0  0  0  0  0  0
   20.9270   18.0500    3.1310 C   0  0  0  0  0  0  0  0  0  0  0  0
   22.7400   18.3520    4.8130 C   0  0  0  0  0  0  0  0  0  0  0  0
   14.9300   15.7720    4.6490 C   0  0  0  0  0  0  0  0  0  0  0  0
   14.0030   14.7250    4.0690 C   0  0  0  0  0  0  0  0  0  0  0  0
   12.6160   14.8450    4.2040 C   0  0  0  0  0  0  0  0  0  0  0  0
   11.7610   13.8770    3.6720 C   0  0  0  0  0  0  0  0  0  0  0  0
   12.2790   12.7610    3.0050 C   0  0  0  0  0  0  0  0  0  0  0  0
   13.6650   12.6440    2.8570 C   0  0  0  0  0  0  0  0  0  0  0  0
   14.5190   13.6150    3.3880 C   0  0  0  0  0  0  0  0  0  0  0  0
   11.3590   11.7460    2.3980 C   0  0  0  0  0  0  0  0  0  0  0  0
   16.3598   14.2262    5.1940 H   0  0  0  0  0  0  0  0  0  0  0  0
   16.8531   15.2776    2.9393 H   0  0  0  0  0  0  0  0  0  0  0  0
   17.7872   16.4728    3.9633 H   0  0  0  0  0  0  0  0  0  0  0  0
   18.4565   13.9084    4.9229 H   0  0  0  0  0  0  0  0  0  0  0  0
   18.5208   13.8346    3.1044 H   0  0  0  0  0  0  0  0  0  0  0  0
   20.2777   15.3628    3.0866 H   0  0  0  0  0  0  0  0  0  0  0  0
   20.7303   18.1258    6.6109 H   0  0  0  0  0  0  0  0  0  0  0  0
   20.3176   19.4332    5.4503 H   0  0  0  0  0  0  0  0  0  0  0  0
   19.3777   17.9024    5.4503 H   0  0  0  0  0  0  0  0  0  0  0  0
   20.0345   18.6929    3.1380 H   0  0  0  0  0  0  0  0  0  0  0  0
   21.7468   18.5663    2.6101 H   0  0  0  0  0  0  0  0  0  0  0  0
   20.6969   17.1089    2.6101 H   0  0  0  0  0  0  0  0  0  0  0  0
   22.9235   18.4319    5.8946 H   0  0  0  0  0  0  0  0  0  0  0  0
   23.5050   17.7056    4.3581 H   0  0  0  0  0  0  0  0  0  0  0  0
   22.7876   19.3524    4.3581 H   0  0  0  0  0  0  0  0  0  0  0  0
   14.4542   16.1698    5.5575 H   0  0  0  0  0  0  0  0  0  0  0  0
   15.0736   16.5051    3.8416 H   0  0  0  0  0  0  0  0  0  0  0  0
   12.1940   15.7111    4.7349 H   0  0  0  0  0  0  0  0  0  0  0  0
   10.6723   13.9927    3.7781 H   0  0  0  0  0  0  0  0  0  0  0  0
   14.0859   11.7818    2.3190 H   0  0  0  0  0  0  0  0  0  0  0  0
   15.6072   13.5063    3.2699 H   0  0  0  0  0  0  0  0  0  0  0  0
   10.8517   11.1863    3.1976 H   0  0  0  0  0  0  0  0  0  0  0  0
   10.6095   12.2564    1.7754 H   0  0  0  0  0  0  0  0  0  0  0  0
   11.9404   11.0501    1.7754 H   0  0  0  0  0  0  0  0  0  0  0  0
  2  1  1  0
  3  2  2  0
  4  2  1  0
  5  1  1  0
  6  5  1  0
  8  7  2  0
  9  8  1  0
  9  6  1  0
 10  8  1  0
 11 10  1  0
 12 11  1  0
 13 11  1  0
 14 11  1  0
 15  1  1  0
 16 15  1  0
 17 16  2  0
 18 17  1  0
 19 18  2  0
 20 19  1  0
 21 20  2  0
 21 16  1  0
 22 19  1  0
  1 23  1  1
  5 24  1  0
  5 25  1  0
  6 26  1  0
  6 27  1  0
  9 28  1  0
 12 29  1  0
 12 30  1  0
 12 31  1  0
 13 32  1  0
 13 33  1  0
 13 34  1  0
 14 35  1  0
 14 36  1  0
 14 37  1  0
 15 38  1  0
 15 39  1  0
 17 40  1  0
 18 41  1  0
 20 42  1  0
 21 43  1  0
 22 44  1  0
 22 45  1  0
 22 46  1  0
M  CHG  1   4  -1
M  END
$$$$
=
     RDKit          3D

 24 25  0  0  0  0  0  0  0  0999 V2000
   19.5080   14.4590    5.2970 C   0  0  0  0  0  0  0  0  0  0  0  0
   20.4750   15.5010    5.5530 N   0  0  0  0  0  0  0  0  0  0  0  0
   21.1700   15.5030    6.7040 N   0  0  0  0  0  0  0  0  0  0  0  0
   22.0350   16.5110    6.6370 N   0  0  0  0  0  0  0  0  0  0  0  0
   21.8770   17.1290    5.4170 C   0  0  0  0  0  0  0  0  0  0  0  0
   20.8750   16.4870    4.7150 C   0  0  0  0  0  0  0  0  0  0  0  0
   22.7060   18.3670    4.8720 C   0  0  0  0  0  0  0  0  0  0  0  0
   22.1590   19.0350    3.9350 O   0  0  0  0  0  0  0  0  0  0  0  0
   23.8400   18.5950    5.3950 O   0  0  0  0  0  1  0  0  0  0  0  0
   18.7780   14.6620    3.9640 C   0  0  2  0  0  0  0  0  0  0  0  0
   17.3190   15.0070    4.1720 C   0  0  0  0  0  0  0  0  0  0  0  0
   16.2730   14.4030    3.4950 C   0  0  0  0  0  0  0  0  0  0  0  0
   14.7420   15.0140    3.9470 S   0  0  0  0  0  0  0  0  0  0  0  0
   15.4450   16.0980    5.0630 C   0  0  0  0  0  0  0  0  0  0  0  0
   16.8180   15.9960    5.0890 C   0  0  0  0  0  0  0  0  0  0  0  0
   18.8770   13.4910    3.1430 O   0  0  0  0  0  0  0  0  0  0  0  0
   20.0289   13.4905    5.2718 H   0  0  0  0  0  0  0  0  0  0  0  0
   18.7580   14.4890    6.1011 H   0  0  0  0  0  0  0  0  0  0  0  0
   20.4919   16.7217    3.7109 H   0  0  0  0  0  0  0  0  0  0  0  0
   19.2679   15.5059    3.4562 H   0  0  0  0  0  0  0  0  0  0  0  0
   16.4129   13.6117    2.7438 H   0  0  0  0  0  0  0  0  0  0  0  0
   14.8687   16.7961    5.6880 H   0  0  0  0  0  0  0  0  0  0  0  0
   17.4621   16.6049    5.7405 H   0  0  0  0  0  0  0  0  0  0  0  0
   18.9448   12.6888    3.7192 H   0  0  0  0  0  0  0  0  0  0  0  0
  2  1  1  0
  3  2  1  0
  4  3  2  0
  5  4  1  0
  6  2  1  0
  6  5  2  0
  7  5  1  0
  8  7  2  0
  9  7  1  0
 10  1  1  0
 11 10  1  0
 12 11  2  0
 13 12  1  0
 14 13  1  0
 15 14  2  0
 15 11  1  0
 16 10  1  0
  1 17  1  0
  1 18  1  0
  6 19  1  0
 10 20  1  6
 12 21  1  0
 14 22  1  0
 15 23  1  0
 16 24  1  0
M  CHG  1   9  -1
M  END
$$$$
=
     RDKit          3D

 30 29  0  0  0  0  0  0  0  0999 V2000
   16.7550   15.8010    6.2220 C   0  0  0  0  0  0  0  0  0  0  0  0
   18.2410   16.1270    5.9470 C   0  0  2  0  0  0  0  0  0  0  0  0
   18.4110   16.4510    4.4580 C   0  0  0  0  0  0  0  0  0  0  0  0
   19.1670   14.9740    6.3900 C   0  0  0  0  0  0  0  0  0  0  0  0
   20.6440   15.1670    6.0550 C   0  0  0  0  0  0  0  0  0  0  0  0
   21.4120   15.4190    7.2240 O   0  0  0  0  0  0  0  0  0  0  0  0
   15.8080   16.2540    5.1060 C   0  0  0  0  0  0  0  0  0  0  0  0
   14.7800   15.2030    4.8090 C   0  0  0  0  0  0  0  0  0  0  0  0
   14.8850   14.1520    3.9700 C   0  0  0  0  0  0  0  0  0  0  0  0
   16.1060   13.7860    3.1800 C   0  0  0  0  0  0  0  0  0  0  0  0
   13.6610   13.1910    3.7820 C   0  0  0  0  0  0  0  0  0  0  0  0
   12.5510   13.7490    3.5440 O   0  0  0  0  0  0  0  0  0  0  0  0
   13.9310   11.9610    3.8900 O   0  0  0  0  0  1  0  0  0  0  0  0
   16.6548   14.7121    6.3417 H   0  0  0  0  0  0  0  0  0  0  0  0
   16.4680   16.3514    7.1301 H   0  0  0  0  0  0  0  0  0  0  0  0
   18.5353   17.0042    6.5419 H   0  0  0  0  0  0  0  0  0  0  0  0
   18.9196   17.4203    4.3494 H   0  0  0  0  0  0  0  0  0  0  0  0
   19.0130   15.6653    3.9782 H   0  0  0  0  0  0  0  0  0  0  0  0
   17.4224   16.4999    3.9782 H   0  0  0  0  0  0  0  0  0  0  0  0
   19.0762   14.8634    7.4806 H   0  0  0  0  0  0  0  0  0  0  0  0
   18.8390   14.0848    5.8317 H   0  0  0  0  0  0  0  0  0  0  0  0
   21.0224   14.2564    5.5675 H   0  0  0  0  0  0  0  0  0  0  0  0
   20.7368   16.0352    5.3859 H   0  0  0  0  0  0  0  0  0  0  0  0
   20.8609   15.2382    8.0263 H   0  0  0  0  0  0  0  0  0  0  0  0
   15.2979   17.1765    5.4203 H   0  0  0  0  0  0  0  0  0  0  0  0
   16.4002   16.4299    4.1959 H   0  0  0  0  0  0  0  0  0  0  0  0
   13.8223   15.3014    5.3410 H   0  0  0  0  0  0  0  0  0  0  0  0
   16.9279   13.5396    3.8684 H   0  0  0  0  0  0  0  0  0  0  0  0
   15.8850   12.9146    2.5461 H   0  0  0  0  0  0  0  0  0  0  0  0
   16.4008   14.6353    2.5461 H   0  0  0  0  0  0  0  0  0  0  0  0
  2  1  1  0
  3  2  1  0
  4  2  1  0
  5  4  1  0
  6  5  1  0
  7  1  1  0
  8  7  1  0
  9  8  2  0
 10  9  1  0
 11  9  1  0
 12 11  2  0
 13 11  1  0
  1 14  1  0
  1 15  1  0
  2 16  1  1
  3 17  1  0
  3 18  1  0
  3 19  1  0
  4 20  1  0
  4 21  1  0
  5 22  1  0
  5 23  1  0
  6 24  1  0
  7 25  1  0
  7 26  1  0
  8 27  1  0
 10 28  1  0
 10 29  1  0
 10 30  1  0
M  CHG  1  13  -1
M  END
$$$$
=
     RDKit          3D

 18 19  0  0  0  0  0  0  0  0999 V2000
   19.1310   15.0720    5.9020 C   0  0  2  0  0  0  0  0  0  0  0  0
   18.4410   15.6340    4.6720 C   0  0  2  0  0  0  0  0  0  0  0  0
   18.1840   16.2550    6.0070 C   0  0  1  0  0  0  0  0  0  0  0  0
   16.7350   16.0680    6.3400 C   0  0  0  0  0  0  0  0  0  0  0  0
   16.0780   15.7880    4.9840 C   0  0  0  0  0  0  0  0  0  0  0  0
   17.1520   15.0590    4.1660 C   0  0  0  0  0  0  0  0  0  0  0  0
   21.2770   15.4350    5.0130 O   0  0  0  0  0  1  0  0  0  0  0  0
   20.5780   15.3100    6.0690 C   0  0  0  0  0  0  0  0  0  0  0  0
   21.0310   15.3600    7.2560 O   0  0  0  0  0  0  0  0  0  0  0  0
   19.2047   14.0823    6.3763 H   0  0  0  0  0  0  0  0  0  0  0  0
   18.8584   15.8786    3.6841 H   0  0  0  0  0  0  0  0  0  0  0  0
   18.3080   17.2082    6.5418 H   0  0  0  0  0  0  0  0  0  0  0  0
   16.5973   15.2180    7.0245 H   0  0  0  0  0  0  0  0  0  0  0  0
   16.3008   16.9409    6.8494 H   0  0  0  0  0  0  0  0  0  0  0  0
   15.1891   15.1522    5.1089 H   0  0  0  0  0  0  0  0  0  0  0  0
   15.7382   16.7107    4.4909 H   0  0  0  0  0  0  0  0  0  0  0  0
   17.1106   13.9743    4.3438 H   0  0  0  0  0  0  0  0  0  0  0  0
   17.0238   15.1929    3.0817 H   0  0  0  0  0  0  0  0  0  0  0  0
  2  1  1  0
  3  2  1  0
  3  1  1  0
  4  3  1  0
  5  4  1  0
  6  5  1  0
  6  2  1  0
  8  7  1  0
  8  1  1  0
  9  8  2  0
  1 10  1  1
  2 11  1  6
  3 12  1  6
  4 13  1  0
  4 14  1  0
  5 15  1  0
  5 16  1  0
  6 17  1  0
  6 18  1  0
M  CHG  1   7  -1
M  END
$$$$
=
     RDKit          3D

 32 34  0  0  0  0  0  0  0  0999 V2000
   17.8850   14.7010    3.9380 C   0  0  0  0  0  0  0  0  0  0  0  0
   18.0990   13.5370    3.2560 O   0  0  0  0  0  0  0  0  0  0  0  0
   16.8440   12.9780    3.0120 N   0  0  0  0  0  0  0  0  0  0  0  0
   15.9940   13.8590    3.5640 C   0  0  0  0  0  0  0  0  0  0  0  0
   16.6090   14.9440    4.1460 N   0  0  0  0  0  0  0  0  0  0  0  0
   14.5430   13.7020    3.5610 C   0  0  0  0  0  0  0  0  0  0  0  0
   13.9240   12.6780    2.8270 C   0  0  0  0  0  0  0  0  0  0  0  0
   12.5330   12.5370    2.8330 C   0  0  0  0  0  0  0  0  0  0  0  0
   11.7450   13.4170    3.5730 C   0  0  0  0  0  0  0  0  0  0  0  0
   12.3450   14.4390    4.3070 C   0  0  0  0  0  0  0  0  0  0  0  0
   13.7360   14.5810    4.3010 C   0  0  0  0  0  0  0  0  0  0  0  0
   19.5240   15.5230    5.8460 C   0  0  2  0  0  0  0  0  0  0  0  0
   19.0210   15.6430    4.4180 C   0  0  2  0  0  0  0  0  0  0  0  0
   18.7500   16.7640    5.4050 C   0  0  0  0  0  0  0  0  0  0  0  0
   19.4890   18.0620    5.1890 C   0  0  0  0  0  0  0  0  0  0  0  0
   17.3700   16.9510    5.9850 C   0  0  0  0  0  0  0  0  0  0  0  0
   21.7330   15.3890    5.0680 O   0  0  0  0  0  1  0  0  0  0  0  0
   20.9760   15.5910    6.0680 C   0  0  0  0  0  0  0  0  0  0  0  0
   21.3690   15.8380    7.2490 O   0  0  0  0  0  0  0  0  0  0  0  0
   14.5395   11.9795    2.2412 H   0  0  0  0  0  0  0  0  0  0  0  0
   12.0600   11.7308    2.2531 H   0  0  0  0  0  0  0  0  0  0  0  0
   10.6507   13.3051    3.5778 H   0  0  0  0  0  0  0  0  0  0  0  0
   11.7239   15.1340    4.8911 H   0  0  0  0  0  0  0  0  0  0  0  0
   14.2030   15.3898    4.8821 H   0  0  0  0  0  0  0  0  0  0  0  0
   19.4094   14.8050    6.6714 H   0  0  0  0  0  0  0  0  0  0  0  0
   19.4739   15.6020    3.4164 H   0  0  0  0  0  0  0  0  0  0  0  0
   19.7420   18.5064    6.1629 H   0  0  0  0  0  0  0  0  0  0  0  0
   20.4123   17.8685    4.6233 H   0  0  0  0  0  0  0  0  0  0  0  0
   18.8513   18.7572    4.6233 H   0  0  0  0  0  0  0  0  0  0  0  0
   17.4297   16.9429    7.0833 H   0  0  0  0  0  0  0  0  0  0  0  0
   16.9576   17.9132    5.6473 H   0  0  0  0  0  0  0  0  0  0  0  0
   16.7164   16.1332    5.6473 H   0  0  0  0  0  0  0  0  0  0  0  0
  2  1  1  0
  3  2  1  0
  4  3  2  0
  5  4  1  0
  5  1  2  0
  6  4  1  0
  7  6  2  0
  8  7  1  0
  9  8  2  0
 10  9  1  0
 11 10  2  0
 11  6  1  0
 13  1  1  0
 13 12  1  0
 14 13  1  0
 14 12  1  0
 15 14  1  0
 16 14  1  0
 18 17  1  0
 18 12  1  0
 19 18  2  0
  7 20  1  0
  8 21  1  0
  9 22  1  0
 10 23  1  0
 11 24  1  0
 12 25  1  1
 13 26  1  6
 15 27  1  0
 15 28  1  0
 15 29  1  0
 16 30  1  0
 16 31  1  0
 16 32  1  0
M  CHG  1  17  -1
M  END
$$$$
=
     RDKit          3D

 28 29  0  0  0  0  0  0  0  0999 V2000
   16.6720   15.3180    4.2370 C   0  0  0  0  0  0  0  0  0  0  0  0
   15.4110   15.4540    4.5150 N   0  0  0  0  0  0  0  0  0  0  0  0
   14.5170   14.4830    4.0340 C   0  0  0  0  0  0  0  0  0  0  0  0
   13.1550   14.6310    4.3010 C   0  0  0  0  0  0  0  0  0  0  0  0
   12.2310   13.6860    3.8430 C   0  0  0  0  0  0  0  0  0  0  0  0
   12.6650   12.5800    3.1100 C   0  0  0  0  0  0  0  0  0  0  0  0
   14.0230   12.4200    2.8350 C   0  0  0  0  0  0  0  0  0  0  0  0
   14.9360   13.3720    3.3000 C   0  0  0  0  0  0  0  0  0  0  0  0
   16.3770   13.2420    3.0290 C   0  0  0  0  0  0  0  0  0  0  0  0
   16.8260   12.2970    2.3910 O   0  0  0  0  0  0  0  0  0  0  0  0
   17.1660   14.2400    3.5450 N   0  0  0  0  0  0  0  0  0  0  0  0
   17.6570   16.3170    4.7770 C   0  0  0  0  0  0  0  0  0  0  0  0
   19.3210   15.7420    4.6280 S   0  0  0  0  0  6  0  0  0  0  0  0
   19.3420   14.5020    5.3880 O   0  0  0  0  0  0  0  0  0  0  0  0
   19.6210   15.7530    3.2080 O   0  0  0  0  0  0  0  0  0  0  0  0
   20.1830   17.0440    5.4530 C   0  0  0  0  0  0  0  0  0  0  0  0
   21.6630   16.0860    6.9680 O   0  0  0  0  0  1  0  0  0  0  0  0
   21.5600   16.5840    5.8100 C   0  0  0  0  0  0  0  0  0  0  0  0
   22.4620   16.8440    4.9690 O   0  0  0  0  0  0  0  0  0  0  0  0
   12.8046   15.4998    4.8776 H   0  0  0  0  0  0  0  0  0  0  0  0
   11.1605   13.8146    4.0608 H   0  0  0  0  0  0  0  0  0  0  0  0
   11.9381   11.8369    2.7504 H   0  0  0  0  0  0  0  0  0  0  0  0
   14.3731   11.5520    2.2570 H   0  0  0  0  0  0  0  0  0  0  0  0
   18.1845   14.1765    3.4053 H   0  0  0  0  0  0  0  0  0  0  0  0
   17.5537   17.2579    4.2167 H   0  0  0  0  0  0  0  0  0  0  0  0
   17.4411   16.4679    5.8450 H   0  0  0  0  0  0  0  0  0  0  0  0
   20.2495   17.9181    4.7885 H   0  0  0  0  0  0  0  0  0  0  0  0
   19.6401   17.3195    6.3691 H   0  0  0  0  0  0  0  0  0  0  0  0
  2  1  2  0
  3  2  1  0
  4  3  2  0
  5  4  1  0
  6  5  2  0
  7  6  1  0
  8  7  2  0
  8  3  1  0
  9  8  1  0
 10  9  2  0
 11  9  1  0
 11  1  1  0
 12  1  1  0
 13 12  1  0
 14 13  2  0
 15 13  2  0
 16 13  1  0
 18 17  1  0
 18 16  1  0
 19 18  2  0
  4 20  1  0
  5 21  1  0
  6 22  1  0
  7 23  1  0
 11 24  1  0
 12 25  1  0
 12 26  1  0
 16 27  1  0
 16 28  1  0
M  CHG  1  17  -1
M  END
$$$$
=
     RDKit          3D

 21 21  0  0  0  0  0  0  0  0999 V2000
   16.0260   13.2320    3.1630 C   0  0  0  0  0  0  0  0  0  0  0  0
   17.2960   12.7400    2.8550 C   0  0  0  0  0  0  0  0  0  0  0  0
   18.4660   13.3400    3.1710 N   0  0  0  0  0  0  0  0  0  0  0  0
   18.3800   14.5130    3.8430 C   0  0  0  0  0  0  0  0  0  0  0  0
   17.1600   15.0880    4.2070 C   0  0  0  0  0  0  0  0  0  0  0  0
   15.9490   14.4440    3.8850 C   0  0  0  0  0  0  0  0  0  0  0  0
   19.6730   15.1900    4.1870 C   0  0  0  0  0  0  0  0  0  0  0  0
   14.6400   15.0540    4.3260 C   0  0  0  0  0  0  0  0  0  0  0  0
   14.4060   16.2350    3.9020 O   0  0  0  0  0  0  0  0  0  0  0  0
   13.8830   14.3810    5.0920 O   0  0  0  0  0  1  0  0  0  0  0  0
   17.1790   16.2900    4.8740 O   0  0  0  0  0  0  0  0  0  0  0  0
   14.8240   12.4690    2.6760 C   0  0  0  0  0  0  0  0  0  0  0  0
   14.2650   11.6740    3.7090 O   0  0  0  0  0  0  0  0  0  0  0  0
   17.3491   11.7857    2.3105 H   0  0  0  0  0  0  0  0  0  0  0  0
   19.7784   15.2452    5.2805 H   0  0  0  0  0  0  0  0  0  0  0  0
   20.5112   14.6150    3.7664 H   0  0  0  0  0  0  0  0  0  0  0  0
   19.6780   16.2064    3.7664 H   0  0  0  0  0  0  0  0  0  0  0  0
   16.3290   16.7199    5.1438 H   0  0  0  0  0  0  0  0  0  0  0  0
   14.0653   13.1829    2.3229 H   0  0  0  0  0  0  0  0  0  0  0  0
   15.1423   11.8039    1.8597 H   0  0  0  0  0  0  0  0  0  0  0  0
   14.5260   12.0451    4.5889 H   0  0  0  0  0  0  0  0  0  0  0  0
  2  1  2  0
  3  2  1  0
  4  3  2  0
  5  4  1  0
  6  1  1  0
  6  5  2  0
  7  4  1  0
  8  6  1  0
  9  8  2  0
 10  8  1  0
 11  5  1  0
 12  1  1  0
 13 12  1  0
  2 14  1  0
  7 15  1  0
  7 16  1  0
  7 17  1  0
 11 18  1  0
 12 19  1  0
 12 20  1  0
 13 21  1  0
M  CHG  1  10  -1
M  END
$$$$
=
     RDKit          3D

 44 47  0  0  0  0  0  0  0  0999 V2000
   28.3260   27.6550   16.7680 C   0  0  0  0  0  0  0  0  0  0  0  0
   29.5380   27.6510   16.0600 C   0  0  0  0  0  0  0  0  0  0  0  0
   29.6320   27.0490   14.8040 C   0  0  0  0  0  0  0  0  0  0  0  0
   28.5170   26.4350   14.2350 C   0  0  0  0  0  0  0  0  0  0  0  0
   27.2860   26.4550   14.8960 C   0  0  0  0  0  0  0  0  0  0  0  0
   27.2060   27.0560   16.1660 C   0  0  0  0  0  0  0  0  0  0  0  0
   26.0900   25.7740   14.2970 C   0  0  1  0  0  0  0  0  0  0  0  0
   24.9070   26.5540   14.4770 O   0  0  0  0  0  0  0  0  0  0  0  0
   23.7110   25.8650   14.1020 C   0  0  1  0  0  0  0  0  0  0  0  0
   22.5560   26.8230   14.4250 C   0  0  0  0  0  0  0  0  0  0  0  0
   21.3230   26.6090   13.5680 C   0  0  0  0  0  0  0  0  0  0  0  0
   21.6300   27.0030   11.8130 S   0  0  0  0  0  0  0  0  0  0  0  0
   23.4020   26.5690   11.6930 C   0  0  0  0  0  0  0  0  0  0  0  0
   23.7480   25.4070   12.6290 C   0  0  1  0  0  0  0  0  0  0  0  0
   25.0990   24.7630   12.2620 C   0  0  0  0  0  0  0  0  0  0  0  0
   26.2900   25.5680   12.7950 C   0  0  2  0  0  0  0  0  0  0  0  0
   27.6880   24.9680   12.5240 C   0  0  0  0  0  0  0  0  0  0  0  0
   28.7230   25.8440   13.0160 O   0  0  0  0  0  0  0  0  0  0  0  0
   27.9170   23.5690   13.1230 C   0  0  0  0  0  0  0  0  0  0  0  0
   27.9440   24.8810   11.0090 C   0  0  0  0  0  0  0  0  0  0  0  0
   27.1400   28.8570   18.4510 O   0  0  0  0  0  1  0  0  0  0  0  0
   28.2330   28.2800   18.1480 C   0  0  0  0  0  0  0  0  0  0  0  0
   29.2490   28.1710   18.9040 O   0  0  0  0  0  0  0  0  0  0  0  0
   30.4255   28.1286   16.5007 H   0  0  0  0  0  0  0  0  0  0  0  0
   30.5888   27.0591   14.2615 H   0  0  0  0  0  0  0  0  0  0  0  0
   26.2444   27.0570   16.7001 H   0  0  0  0  0  0  0  0  0  0  0  0
   25.9788   24.8064   14.8083 H   0  0  0  0  0  0  0  0  0  0  0  0
   23.5860   24.9261   14.6614 H   0  0  0  0  0  0  0  0  0  0  0  0
   22.2740   26.6828   15.4790 H   0  0  0  0  0  0  0  0  0  0  0  0
   22.9173   27.8409   14.2167 H   0  0  0  0  0  0  0  0  0  0  0  0
   21.0149   25.5559   13.6465 H   0  0  0  0  0  0  0  0  0  0  0  0
   20.5350   27.2837   13.9338 H   0  0  0  0  0  0  0  0  0  0  0  0
   23.6314   26.2772   10.6575 H   0  0  0  0  0  0  0  0  0  0  0  0
   23.9978   27.4454   11.9878 H   0  0  0  0  0  0  0  0  0  0  0  0
   22.9821   24.6280   12.5002 H   0  0  0  0  0  0  0  0  0  0  0  0
   25.1363   23.7504   12.6900 H   0  0  0  0  0  0  0  0  0  0  0  0
   25.1733   24.7378   11.1648 H   0  0  0  0  0  0  0  0  0  0  0  0
   26.2935   26.5155   12.2362 H   0  0  0  0  0  0  0  0  0  0  0  0
   27.9064   23.6340   14.2210 H   0  0  0  0  0  0  0  0  0  0  0  0
   27.1178   22.8914   12.7881 H   0  0  0  0  0  0  0  0  0  0  0  0
   28.8905   23.1816   12.7881 H   0  0  0  0  0  0  0  0  0  0  0  0
   28.9717   24.5318   10.8302 H   0  0  0  0  0  0  0  0  0  0  0  0
   27.2327   24.1741   10.5569 H   0  0  0  0  0  0  0  0  0  0  0  0
   27.8107   25.8749   10.5569 H   0  0  0  0  0  0  0  0  0  0  0  0
  2  1  2  0
  3  2  1  0
  4  3  2  0
  5  4  1  0
  6  5  2  0
  6  1  1  0
  7  5  1  0
  8  7  1  0
  9  8  1  0
 10  9  1  0
 11 10  1  0
 12 11  1  0
 13 12  1  0
 14 13  1  0
 14  9  1  0
 15 14  1  0
 16 15  1  0
 16  7  1  0
 17 16  1  0
 18 17  1  0
 18  4  1  0
 19 17  1  0
 20 17  1  0
 22 21  1  0
 22  1  1  0
 23 22  2  0
  2 24  1  0
  3 25  1  0
  6 26  1  0
  7 27  1  1
  9 28  1  1
 10 29  1  0
 10 30  1  0
 11 31  1  0
 11 32  1  0
 13 33  1  0
 13 34  1  0
 14 35  1  1
 15 36  1  0
 15 37  1  0
 16 38  1  6
 19 39  1  0
 19 40  1  0
 19 41  1  0
 20 42  1  0
 20 43  1  0
 20 44  1  0
M  CHG  1  21  -1
M  END
$$$$
=
     RDKit          3D

 31 32  0  0  0  0  0  0  0  0999 V2000
   11.1760   14.0130    4.5860 C   0  0  1  0  0  0  0  0  0  0  0  0
   12.6310   13.9080    4.1370 C   0  0  0  0  0  0  0  0  0  0  0  0
   13.0510   12.7830    3.4120 C   0  0  0  0  0  0  0  0  0  0  0  0
   14.3740   12.6600    2.9840 C   0  0  0  0  0  0  0  0  0  0  0  0
   15.2960   13.6630    3.2710 C   0  0  0  0  0  0  0  0  0  0  0  0
   14.8950   14.7930    3.9790 C   0  0  0  0  0  0  0  0  0  0  0  0
   13.5700   14.9190    4.4050 C   0  0  0  0  0  0  0  0  0  0  0  0
   10.3480   13.1160    3.7760 N   0  0  0  0  0  0  0  0  0  0  0  0
    9.3670   13.5540    2.9180 C   0  0  0  0  0  0  0  0  0  0  0  0
    8.9750   14.7140    2.8540 O   0  0  0  0  0  0  0  0  0  0  0  0
    8.8290   12.5010    2.0750 C   0  0  0  0  0  0  0  0  0  0  0  0
    9.4300   11.7180    1.1070 C   0  0  0  0  0  0  0  0  0  0  0  0
    8.4340   10.8490    0.6040 C   0  0  0  0  0  0  0  0  0  0  0  0
    7.2830   11.1490    1.2920 C   0  0  0  0  0  0  0  0  0  0  0  0
    7.5070   12.1450    2.1870 O   0  0  0  0  0  0  0  0  0  0  0  0
   10.9990   13.6490    6.0560 C   0  0  0  0  0  0  0  0  0  0  0  0
    9.1340   12.7300    7.1970 O   0  0  0  0  0  1  0  0  0  0  0  0
    9.5490   13.7080    6.5150 C   0  0  0  0  0  0  0  0  0  0  0  0
    8.9430   14.7690    6.1910 O   0  0  0  0  0  0  0  0  0  0  0  0
   10.8664   15.0601    4.4527 H   0  0  0  0  0  0  0  0  0  0  0  0
   12.3284   11.9874    3.1777 H   0  0  0  0  0  0  0  0  0  0  0  0
   14.6884   11.7698    2.4195 H   0  0  0  0  0  0  0  0  0  0  0  0
   16.3399   13.5629    2.9389 H   0  0  0  0  0  0  0  0  0  0  0  0
   15.6220   15.5874    4.2032 H   0  0  0  0  0  0  0  0  0  0  0  0
   13.2587   15.8188    4.9558 H   0  0  0  0  0  0  0  0  0  0  0  0
   10.5096   12.1017    3.8535 H   0  0  0  0  0  0  0  0  0  0  0  0
   10.4820   11.7624    0.7888 H   0  0  0  0  0  0  0  0  0  0  0  0
    8.5561   10.0869   -0.1797 H   0  0  0  0  0  0  0  0  0  0  0  0
    6.3142   10.6511    1.1388 H   0  0  0  0  0  0  0  0  0  0  0  0
   11.3741   12.6266    6.2112 H   0  0  0  0  0  0  0  0  0  0  0  0
   11.5605   14.3876    6.6468 H   0  0  0  0  0  0  0  0  0  0  0  0
  2  1  1  0
  3  2  2  0
  4  3  1  0
  5  4  2  0
  6  5  1  0
  7  6  2  0
  7  2  1  0
  8  1  1  0
  9  8  1  0
 10  9  2  0
 11  9  1  0
 12 11  2  0
 13 12  1  0
 14 13  2  0
 15 14  1  0
 15 11  1  0
 16  1  1  0
 18 17  1  0
 18 16  1  0
 19 18  2  0
  1 20  1  1
  3 21  1  0
  4 22  1  0
  5 23  1  0
  6 24  1  0
  7 25  1  0
  8 26  1  0
 12 27  1  0
 13 28  1  0
 14 29  1  0
 16 30  1  0
 16 31  1  0
M  CHG  1  17  -1
M  END
$$$$
=
     RDKit          3D

 38 38  0  0  0  0  0  0  0  0999 V2000
   18.0360   15.9870    5.0250 C   0  0  1  0  0  0  0  0  0  0  0  0
   18.4490   17.3640    5.5630 C   0  0  0  0  0  0  0  0  0  0  0  0
   19.7090   17.8310    5.4840 C   0  0  0  0  0  0  0  0  0  0  0  0
   20.7830   17.0540    4.8280 C   0  0  0  0  0  0  0  0  0  0  0  0
   21.9220   17.5190    4.7940 O   0  0  0  0  0  0  0  0  0  0  0  0
   20.4280   15.7400    4.1790 C   0  0  0  0  0  0  0  0  0  0  0  0
   19.2860   15.0170    4.9300 C   0  0  0  0  0  0  0  0  0  0  0  0
   18.9640   13.7310    4.1380 C   0  0  0  0  0  0  0  0  0  0  0  0
   19.8090   14.5680    6.3210 C   0  0  0  0  0  0  0  0  0  0  0  0
   17.3730   18.2620    6.1200 C   0  0  0  0  0  0  0  0  0  0  0  0
   15.6070   15.1810    5.6410 C   0  0  0  0  0  0  0  0  0  0  0  0
   16.9170   15.3910    5.8690 C   0  0  0  0  0  0  0  0  0  0  0  0
   14.6110   14.5270    3.5000 C   0  0  0  0  0  0  0  0  0  0  0  0
   14.8360   15.4510    4.4480 C   0  0  0  0  0  0  0  0  0  0  0  0
   14.2690   16.8370    4.3420 C   0  0  0  0  0  0  0  0  0  0  0  0
   14.3380   12.2380    4.0550 O   0  0  0  0  0  1  0  0  0  0  0  0
   15.1010   13.0830    3.5130 C   0  0  0  0  0  0  0  0  0  0  0  0
   16.2220   12.9300    2.9510 O   0  0  0  0  0  0  0  0  0  0  0  0
   17.5880   16.2810    3.7020 O   0  0  0  0  0  0  0  0  0  0  0  0
   19.9455   18.8139    5.9176 H   0  0  0  0  0  0  0  0  0  0  0  0
   20.1089   15.9294    3.1435 H   0  0  0  0  0  0  0  0  0  0  0  0
   21.3178   15.0939    4.2074 H   0  0  0  0  0  0  0  0  0  0  0  0
   18.7584   12.9097    4.8403 H   0  0  0  0  0  0  0  0  0  0  0  0
   18.0809   13.9018    3.5048 H   0  0  0  0  0  0  0  0  0  0  0  0
   19.8234   13.4655    3.5048 H   0  0  0  0  0  0  0  0  0  0  0  0
   19.2275   15.0673    7.1100 H   0  0  0  0  0  0  0  0  0  0  0  0
   19.7000   13.4778    6.4193 H   0  0  0  0  0  0  0  0  0  0  0  0
   20.8701   14.8408    6.4193 H   0  0  0  0  0  0  0  0  0  0  0  0
   17.4055   18.2349    7.2192 H   0  0  0  0  0  0  0  0  0  0  0  0
   17.5398   19.2926    5.7735 H   0  0  0  0  0  0  0  0  0  0  0  0
   16.3889   17.9135    5.7735 H   0  0  0  0  0  0  0  0  0  0  0  0
   15.0449   14.7430    6.4790 H   0  0  0  0  0  0  0  0  0  0  0  0
   17.2459   15.0663    6.8672 H   0  0  0  0  0  0  0  0  0  0  0  0
   14.0159   14.8421    2.6302 H   0  0  0  0  0  0  0  0  0  0  0  0
   14.1028   17.2433    5.3506 H   0  0  0  0  0  0  0  0  0  0  0  0
   14.9757   17.4817    3.7989 H   0  0  0  0  0  0  0  0  0  0  0  0
   13.3131   16.8016    3.7989 H   0  0  0  0  0  0  0  0  0  0  0  0
   16.7612   16.8236    3.7465 H   0  0  0  0  0  0  0  0  0  0  0  0
  2  1  1  0
  3  2  2  0
  4  3  1  0
  5  4  2  0
  6  4  1  0
  7  6  1  0
  7  1  1  0
  8  7  1  0
  9  7  1  0
 10  2  1  0
 12 11  2  0
 12  1  1  0
 14 13  2  0
 14 11  1  0
 15 14  1  0
 17 16  1  0
 17 13  1  0
 18 17  2  0
  1 19  1  6
  3 20  1  0
  6 21  1  0
  6 22  1  0
  8 23  1  0
  8 24  1  0
  8 25  1  0
  9 26  1  0
  9 27  1  0
  9 28  1  0
 10 29  1  0
 10 30  1  0
 10 31  1  0
 11 32  1  0
 12 33  1  0
 13 34  1  0
 15 35  1  0
 15 36  1  0
 15 37  1  0
 19 38  1  0
M  CHG  1  16  -1
M  END
$$$$
=
     RDKit          3D

 28 29  0  0  0  0  0  0  0  0999 V2000
   17.7020   15.4720    4.7860 N   0  0  0  0  0  0  0  0  0  0  0  0
   17.7920   14.4550    3.8130 C   0  0  0  0  0  0  0  0  0  0  0  0
   18.7950   14.0700    3.2410 O   0  0  0  0  0  0  0  0  0  0  0  0
   16.4470   13.8970    3.5770 C   0  0  0  0  0  0  0  0  0  0  0  0
   15.4630   14.4980    4.3470 C   0  0  0  0  0  0  0  0  0  0  0  0
   16.1470   15.7390    5.3610 S   0  0  0  0  0  6  0  0  0  0  0  0
   16.0310   15.2930    6.7300 O   0  0  0  0  0  0  0  0  0  0  0  0
   15.6450   17.0070    4.8880 O   0  0  0  0  0  0  0  0  0  0  0  0
   14.1330   14.1250    4.2850 C   0  0  0  0  0  0  0  0  0  0  0  0
   13.7960   13.0990    3.3980 C   0  0  0  0  0  0  0  0  0  0  0  0
   14.7840   12.4800    2.6080 C   0  0  0  0  0  0  0  0  0  0  0  0
   16.1230   12.8770    2.6940 C   0  0  0  0  0  0  0  0  0  0  0  0
   18.8080   16.2830    5.3160 C   0  0  0  0  0  0  0  0  0  0  0  0
   19.7700   15.3950    6.1070 C   0  0  0  0  0  0  0  0  0  0  0  0
   21.1780   15.3630    5.5190 C   0  0  0  0  0  0  0  0  0  0  0  0
   22.5620   16.9430    6.5720 O   0  0  0  0  0  1  0  0  0  0  0  0
   21.9640   16.6740    5.4920 C   0  0  0  0  0  0  0  0  0  0  0  0
   21.9150   17.3310    4.4180 O   0  0  0  0  0  0  0  0  0  0  0  0
   13.3712   14.6159    4.9085 H   0  0  0  0  0  0  0  0  0  0  0  0
   12.7490   12.7718    3.3161 H   0  0  0  0  0  0  0  0  0  0  0  0
   14.4996   11.6746    1.9149 H   0  0  0  0  0  0  0  0  0  0  0  0
   16.8968   12.3942    2.0790 H   0  0  0  0  0  0  0  0  0  0  0  0
   19.3483   16.7535    4.4813 H   0  0  0  0  0  0  0  0  0  0  0  0
   18.4022   17.0601    5.9804 H   0  0  0  0  0  0  0  0  0  0  0  0
   19.8298   15.7751    7.1375 H   0  0  0  0  0  0  0  0  0  0  0  0
   19.3755   14.3689    6.0680 H   0  0  0  0  0  0  0  0  0  0  0  0
   21.7635   14.6404    6.1063 H   0  0  0  0  0  0  0  0  0  0  0  0
   21.0325   15.1028    4.4602 H   0  0  0  0  0  0  0  0  0  0  0  0
  2  1  1  0
  3  2  2  0
  4  2  1  0
  5  4  2  0
  6  5  1  0
  6  1  1  0
  7  6  2  0
  8  6  2  0
  9  5  1  0
 10  9  2  0
 11 10  1  0
 12 11  2  0
 12  4  1  0
 13  1  1  0
 14 13  1  0
 15 14  1  0
 17 15  1  0
 17 16  1  0
 18 17  2  0
  9 19  1  0
 10 20  1  0
 11 21  1  0
 12 22  1  0
 13 23  1  0
 13 24  1  0
 14 25  1  0
 14 26  1  0
 15 27  1  0
 15 28  1  0
M  CHG  1  16  -1
M  END
$$$$
=
     RDKit          3D

 31 32  0  0  0  0  0  0  0  0999 V2000
   18.1820   15.6020    3.7760 N   0  0  2  0  0  4  0  0  0  0  0  0
   18.1610   15.8290    5.2720 C   0  0  0  0  0  0  0  0  0  0  0  0
   16.8970   15.2320    5.9040 C   0  0  1  0  0  0  0  0  0  0  0  0
   16.6390   15.8560    7.2720 C   0  0  0  0  0  0  0  0  0  0  0  0
   15.7590   15.5130    5.0750 O   0  0  0  0  0  0  0  0  0  0  0  0
   15.4670   14.4950    4.2020 C   0  0  0  0  0  0  0  0  0  0  0  0
   16.4190   13.8340    3.4060 C   0  0  0  0  0  0  0  0  0  0  0  0
   17.8920   14.1700    3.3990 C   0  0  0  0  0  0  0  0  0  0  0  0
   15.9760   12.7900    2.5730 C   0  0  0  0  0  0  0  0  0  0  0  0
   14.6230   12.4500    2.4990 C   0  0  0  0  0  0  0  0  0  0  0  0
   13.6900   13.1490    3.2590 C   0  0  0  0  0  0  0  0  0  0  0  0
   14.1110   14.1720    4.1050 C   0  0  0  0  0  0  0  0  0  0  0  0
   19.5390   16.0550    3.1940 C   0  0  0  0  0  0  0  0  0  0  0  0
   19.6900   17.6100    1.4250 O   0  0  0  0  0  1  0  0  0  0  0  0
   19.5860   17.5190    2.6800 C   0  0  0  0  0  0  0  0  0  0  0  0
   19.6500   18.3870    3.5870 O   0  0  0  0  0  0  0  0  0  0  0  0
   17.4257   16.1706    3.3690 H   0  0  0  0  0  0  0  0  0  0  0  0
   19.0457   15.3530    5.7200 H   0  0  0  0  0  0  0  0  0  0  0  0
   18.1674   16.9126    5.4609 H   0  0  0  0  0  0  0  0  0  0  0  0
   17.0475   14.1470    6.0052 H   0  0  0  0  0  0  0  0  0  0  0  0
   16.9323   15.1466    8.0598 H   0  0  0  0  0  0  0  0  0  0  0  0
   17.2293   16.7789    7.3713 H   0  0  0  0  0  0  0  0  0  0  0  0
   15.5693   16.0925    7.3713 H   0  0  0  0  0  0  0  0  0  0  0  0
   18.4035   13.5104    4.1155 H   0  0  0  0  0  0  0  0  0  0  0  0
   18.2530   14.0257    2.3700 H   0  0  0  0  0  0  0  0  0  0  0  0
   16.7074   12.2321    1.9699 H   0  0  0  0  0  0  0  0  0  0  0  0
   14.2957   11.6313    1.8412 H   0  0  0  0  0  0  0  0  0  0  0  0
   12.6221   12.8940    3.1916 H   0  0  0  0  0  0  0  0  0  0  0  0
   13.3721   14.7287    4.7000 H   0  0  0  0  0  0  0  0  0  0  0  0
   20.2994   15.9469    3.9815 H   0  0  0  0  0  0  0  0  0  0  0  0
   19.7202   15.4186    2.3153 H   0  0  0  0  0  0  0  0  0  0  0  0
  2  1  1  0
  3  2  1  0
  4  3  1  0
  5  3  1  0
  6  5  1  0
  7  6  2  0
  8  7  1  0
  8  1  1  0
  9  7  1  0
 10  9  2  0
 11 10  1  0
 12 11  2  0
 12  6  1  0
 13  1  1  0
 15 13  1  0
 15 14  1  0
 16 15  2  0
  1 17  1  6
  2 18  1  0
  2 19  1  0
  3 20  1  1
  4 21  1  0
  4 22  1  0
  4 23  1  0
  8 24  1  0
  8 25  1  0
  9 26  1  0
 10 27  1  0
 11 28  1  0
 12 29  1  0
 13 30  1  0
 13 31  1  0
M  CHG  2   1   1  14  -1
M  END
$$$$
=
     RDKit          3D

 21 22  0  0  0  0  0  0  0  0999 V2000
   17.5480   16.5460    4.9410 C   0  0  0  0  0  0  0  0  0  0  0  0
   16.2390   16.4830    5.4310 C   0  0  0  0  0  0  0  0  0  0  0  0
   15.3430   15.5540    4.9060 C   0  0  0  0  0  0  0  0  0  0  0  0
   15.7540   14.6910    3.8940 C   0  0  0  0  0  0  0  0  0  0  0  0
   17.0160   14.7470    3.4110 N   0  0  0  0  0  0  0  0  0  0  0  0
   17.9110   15.6600    3.9310 C   0  0  0  0  0  0  0  0  0  0  0  0
   19.3350   15.6960    3.4010 C   0  0  0  0  0  0  0  0  0  0  0  0
   20.1940   14.9600    3.9810 O   0  0  0  0  0  0  0  0  0  0  0  0
   19.5410   16.4410    2.3910 O   0  0  0  0  0  1  0  0  0  0  0  0
   14.7990   13.6850    3.2980 C   0  0  0  0  0  0  0  0  0  0  0  0
   15.3210   12.6200    2.3610 C   0  0  0  0  0  0  0  0  0  0  0  0
   14.8460   12.2360    3.7290 C   0  0  0  0  0  0  0  0  0  0  0  0
   19.1490   18.4110    5.7610 N   0  0  0  0  0  0  0  0  0  0  0  0
   18.4340   17.5400    5.4740 C   0  0  0  0  0  0  0  0  0  0  0  0
   15.9173   17.1667    6.2305 H   0  0  0  0  0  0  0  0  0  0  0  0
   14.3136   15.5027    5.2902 H   0  0  0  0  0  0  0  0  0  0  0  0
   14.0170   14.4572    3.2516 H   0  0  0  0  0  0  0  0  0  0  0  0
   14.7350   12.3326    1.4755 H   0  0  0  0  0  0  0  0  0  0  0  0
   16.2521   12.4743    1.7937 H   0  0  0  0  0  0  0  0  0  0  0  0
   13.9118   11.6673    3.8465 H   0  0  0  0  0  0  0  0  0  0  0  0
   15.2848   11.6928    4.5790 H   0  0  0  0  0  0  0  0  0  0  0  0
  2  1  2  0
  3  2  1  0
  4  3  2  0
  5  4  1  0
  6  5  2  0
  6  1  1  0
  7  6  1  0
  8  7  2  0
  9  7  1  0
 10  4  1  0
 11 10  1  0
 12 11  1  0
 12 10  1  0
 14  1  1  0
 14 13  3  0
  2 15  1  0
  3 16  1  0
 10 17  1  0
 11 18  1  0
 11 19  1  0
 12 20  1  0
 12 21  1  0
M  CHG  1   9  -1
M  END
$$$$
=
     RDKit          3D

 37 37  0  0  0  0  0  0  0  0999 V2000
   18.8640   13.9660    3.3370 O   0  0  0  0  0  0  0  0  0  0  0  0
   18.1720   14.9280    3.6710 C   0  0  0  0  0  0  0  0  0  0  0  0
   16.6960   14.7330    3.8410 C   0  0  0  0  0  0  0  0  0  0  0  0
   16.0940   13.6470    3.1910 C   0  0  0  0  0  0  0  0  0  0  0  0
   14.7220   13.4120    3.3130 C   0  0  0  0  0  0  0  0  0  0  0  0
   13.9210   14.2650    4.0860 C   0  0  0  0  0  0  0  0  0  0  0  0
   14.5280   15.3440    4.7470 C   0  0  0  0  0  0  0  0  0  0  0  0
   15.9020   15.5780    4.6250 C   0  0  0  0  0  0  0  0  0  0  0  0
   12.4430   14.0010    4.2390 C   0  0  0  0  0  0  0  0  0  0  0  0
   11.8990   13.3650    3.1640 F   0  0  0  0  0  0  0  0  0  0  0  0
   11.7250   15.1470    4.3980 F   0  0  0  0  0  0  0  0  0  0  0  0
   12.1460   13.2220    5.3170 F   0  0  0  0  0  0  0  0  0  0  0  0
   18.7880   16.2910    3.9150 C   0  0  0  0  0  0  0  0  0  0  0  0
   19.2770   16.9390    2.6220 C   0  0  0  0  0  0  0  0  0  0  0  0
   20.4510   17.9090    2.8000 C   0  0  0  0  0  0  0  0  0  0  0  0
   20.7710   18.3140    4.2440 C   0  0  0  0  0  0  0  0  0  0  0  0
   22.2350   18.0880    4.6270 C   0  0  0  0  0  0  0  0  0  0  0  0
   22.3680   17.4470    6.0050 C   0  0  0  0  0  0  0  0  0  0  0  0
   21.7790   16.0360    6.1120 C   0  0  0  0  0  0  0  0  0  0  0  0
   21.2330   15.7320    7.2080 O   0  0  0  0  0  0  0  0  0  0  0  0
   21.9220   15.3370    5.0660 O   0  0  0  0  0  1  0  0  0  0  0  0
   16.7087   12.9718    2.5777 H   0  0  0  0  0  0  0  0  0  0  0  0
   14.2672   12.5522    2.7993 H   0  0  0  0  0  0  0  0  0  0  0  0
   13.9160   16.0140    5.3687 H   0  0  0  0  0  0  0  0  0  0  0  0
   16.3605   16.4303    5.1478 H   0  0  0  0  0  0  0  0  0  0  0  0
   18.0326   16.9445    4.3758 H   0  0  0  0  0  0  0  0  0  0  0  0
   19.6564   16.1571    4.5768 H   0  0  0  0  0  0  0  0  0  0  0  0
   19.5931   16.1397    1.9356 H   0  0  0  0  0  0  0  0  0  0  0  0
   18.4369   17.5334    2.2334 H   0  0  0  0  0  0  0  0  0  0  0  0
   21.3481   17.4339    2.3763 H   0  0  0  0  0  0  0  0  0  0  0  0
   20.1515   18.8363    2.2898 H   0  0  0  0  0  0  0  0  0  0  0  0
   20.5393   19.3824    4.3662 H   0  0  0  0  0  0  0  0  0  0  0  0
   20.1607   17.6788    4.9028 H   0  0  0  0  0  0  0  0  0  0  0  0
   22.7003   17.4274    3.8807 H   0  0  0  0  0  0  0  0  0  0  0  0
   22.7358   19.0670    4.6557 H   0  0  0  0  0  0  0  0  0  0  0  0
   23.4375   17.3923    6.2561 H   0  0  0  0  0  0  0  0  0  0  0  0
   21.7935   18.0780    6.6991 H   0  0  0  0  0  0  0  0  0  0  0  0
  2  1  2  0
  3  2  1  0
  4  3  2  0
  5  4  1  0
  6  5  2  0
  7  6  1  0
  8  7  2  0
  8  3  1  0
  9  6  1  0
 10  9  1  0
 11  9  1  0
 12  9  1  0
 13  2  1  0
 14 13  1  0
 15 14  1  0
 16 15  1  0
 17 16  1  0
 18 17  1  0
 19 18  1  0
 20 19  2  0
 21 19  1  0
  4 22  1  0
  5 23  1  0
  7 24  1  0
  8 25  1  0
 13 26  1  0
 13 27  1  0
 14 28  1  0
 14 29  1  0
 15 30  1  0
 15 31  1  0
 16 32  1  0
 16 33  1  0
 17 34  1  0
 17 35  1  0
 18 36  1  0
 18 37  1  0
M  CHG  1  21  -1
M  END
$$$$
=
     RDKit          3D

 44 45  0  0  0  0  0  0  0  0999 V2000
   16.2610   15.9060    5.3490 C   0  0  1  0  0  0  0  0  0  0  0  0
   17.3670   16.8950    4.9660 C   0  0  0  0  0  0  0  0  0  0  0  0
   18.0780   16.2740    3.8530 N   0  0  0  0  0  0  0  0  0  0  0  0
   17.5390   14.9640    3.5550 C   0  0  0  0  0  0  0  0  0  0  0  0
   16.1120   15.0420    4.0860 C   0  0  1  0  0  0  0  0  0  0  0  0
   19.2340   16.7410    3.2870 C   0  0  0  0  0  0  0  0  0  0  0  0
   19.8560   16.1480    2.4140 O   0  0  0  0  0  0  0  0  0  0  0  0
   15.8320   14.9780    7.4690 O   0  0  0  0  0  1  0  0  0  0  0  0
   16.7530   15.3230    6.6740 C   0  0  0  0  0  0  0  0  0  0  0  0
   18.0030   15.2370    6.8220 O   0  0  0  0  0  0  0  0  0  0  0  0
   15.4510   13.6710    4.2360 C   0  0  0  0  0  0  0  0  0  0  0  0
   13.9680   13.6980    3.9520 C   0  0  0  0  0  0  0  0  0  0  0  0
   13.4030   12.7690    3.0700 C   0  0  0  0  0  0  0  0  0  0  0  0
   12.0290   12.7770    2.8180 C   0  0  0  0  0  0  0  0  0  0  0  0
   11.2090   13.7130    3.4450 C   0  0  0  0  0  0  0  0  0  0  0  0
   11.7620   14.6400    4.3270 C   0  0  0  0  0  0  0  0  0  0  0  0
   13.1340   14.6310    4.5830 C   0  0  0  0  0  0  0  0  0  0  0  0
   19.5850   17.9500    3.7970 O   0  0  0  0  0  0  0  0  0  0  0  0
   20.6940   18.0810    4.7190 C   0  0  0  0  0  0  0  0  0  0  0  0
   21.0380   16.7390    5.3750 C   0  0  0  0  0  0  0  0  0  0  0  0
   20.1850   19.0400    5.8050 C   0  0  0  0  0  0  0  0  0  0  0  0
   21.9130   18.7160    4.0390 C   0  0  0  0  0  0  0  0  0  0  0  0
   15.2334   16.2293    5.5713 H   0  0  0  0  0  0  0  0  0  0  0  0
   16.9322   17.8566    4.6556 H   0  0  0  0  0  0  0  0  0  0  0  0
   18.0377   17.1045    5.8123 H   0  0  0  0  0  0  0  0  0  0  0  0
   17.5463   14.7721    2.4719 H   0  0  0  0  0  0  0  0  0  0  0  0
   18.1214   14.1466    4.0052 H   0  0  0  0  0  0  0  0  0  0  0  0
   15.3893   15.5060    3.3987 H   0  0  0  0  0  0  0  0  0  0  0  0
   15.9298   12.9721    3.5344 H   0  0  0  0  0  0  0  0  0  0  0  0
   15.5806   13.3553    5.2817 H   0  0  0  0  0  0  0  0  0  0  0  0
   14.0454   12.0278    2.5721 H   0  0  0  0  0  0  0  0  0  0  0  0
   11.5937   12.0433    2.1236 H   0  0  0  0  0  0  0  0  0  0  0  0
   10.1275   13.7204    3.2444 H   0  0  0  0  0  0  0  0  0  0  0  0
   11.1159   15.3799    4.8221 H   0  0  0  0  0  0  0  0  0  0  0  0
   13.5636   15.3611    5.2847 H   0  0  0  0  0  0  0  0  0  0  0  0
   21.0101   16.8479    6.4692 H   0  0  0  0  0  0  0  0  0  0  0  0
   20.3054   15.9800    5.0633 H   0  0  0  0  0  0  0  0  0  0  0  0
   22.0454   16.4260    5.0633 H   0  0  0  0  0  0  0  0  0  0  0  0
   20.4073   18.6211    6.7975 H   0  0  0  0  0  0  0  0  0  0  0  0
   20.6849   20.0140    5.6977 H   0  0  0  0  0  0  0  0  0  0  0  0
   19.0982   19.1718    5.6977 H   0  0  0  0  0  0  0  0  0  0  0  0
   22.6123   19.0803    4.8060 H   0  0  0  0  0  0  0  0  0  0  0  0
   22.4155   17.9651    3.4116 H   0  0  0  0  0  0  0  0  0  0  0  0
   21.5856   19.5582    3.4116 H   0  0  0  0  0  0  0  0  0  0  0  0
  2  1  1  0
  3  2  1  0
  4  3  1  0
  5  1  1  0
  5  4  1  0
  6  3  1  0
  7  6  2  0
  9  1  1  0
  9  8  1  0
 10  9  2  0
 11  5  1  0
 12 11  1  0
 13 12  2  0
 14 13  1  0
 15 14  2  0
 16 15  1  0
 17 16  2  0
 17 12  1  0
 18  6  1  0
 19 18  1  0
 20 19  1  0
 21 19  1  0
 22 19  1  0
  1 23  1  1
  2 24  1  0
  2 25  1  0
  4 26  1  0
  4 27  1  0
  5 28  1  6
 11 29  1  0
 11 30  1  0
 13 31  1  0
 14 32  1  0
 15 33  1  0
 16 34  1  0
 17 35  1  0
 20 36  1  0
 20 37  1  0
 20 38  1  0
 21 39  1  0
 21 40  1  0
 21 41  1  0
 22 42  1  0
 22 43  1  0
 22 44  1  0
M  CHG  1   8  -1
M  END
$$$$
=
     RDKit          3D

 28 28  0  0  0  0  0  0  0  0999 V2000
   18.6080   15.3790    4.1400 N   0  0  0  0  0  0  0  0  0  0  0  0
   17.5610   14.5190    3.8310 C   0  0  0  0  0  0  0  0  0  0  0  0
   17.9430   13.4360    3.0910 N   0  0  0  0  0  0  0  0  0  0  0  0
   17.0150   12.5460    2.6830 C   0  0  0  0  0  0  0  0  0  0  0  0
   15.6730   12.6460    2.9730 C   0  0  0  0  0  0  0  0  0  0  0  0
   15.2740   13.7260    3.7390 C   0  0  0  0  0  0  0  0  0  0  0  0
   16.2150   14.6770    4.1810 C   0  0  0  0  0  0  0  0  0  0  0  0
   15.6940   15.7540    5.0660 C   0  0  0  0  0  0  0  0  0  0  0  0
   14.9720   16.6500    4.5180 O   0  0  0  0  0  0  0  0  0  0  0  0
   15.9800   15.6760    6.3000 O   0  0  0  0  0  1  0  0  0  0  0  0
   19.6690   14.7450    4.9290 C   0  0  0  0  0  0  0  0  0  0  0  0
   19.4880   14.9620    6.4260 C   0  0  0  0  0  0  0  0  0  0  0  0
   18.4030   16.8170    4.3430 C   0  0  0  0  0  0  0  0  0  0  0  0
   19.3690   17.6780    3.5120 C   0  0  0  0  0  0  0  0  0  0  0  0
   19.4310   17.2160    2.1610 O   0  0  0  0  0  0  0  0  0  0  0  0
   17.3511   11.6882    2.0820 H   0  0  0  0  0  0  0  0  0  0  0  0
   14.9501   11.8999    2.6114 H   0  0  0  0  0  0  0  0  0  0  0  0
   14.2133   13.8436    4.0054 H   0  0  0  0  0  0  0  0  0  0  0  0
   19.6627   13.6640    4.7254 H   0  0  0  0  0  0  0  0  0  0  0  0
   20.6246   15.2046    4.6366 H   0  0  0  0  0  0  0  0  0  0  0  0
   20.0972   14.2316    6.9787 H   0  0  0  0  0  0  0  0  0  0  0  0
   19.8078   15.9808    6.6901 H   0  0  0  0  0  0  0  0  0  0  0  0
   18.4283   14.8302    6.6901 H   0  0  0  0  0  0  0  0  0  0  0  0
   17.3714   17.0692    4.0562 H   0  0  0  0  0  0  0  0  0  0  0  0
   18.5949   17.0331    5.4044 H   0  0  0  0  0  0  0  0  0  0  0  0
   19.0197   18.7210    3.5202 H   0  0  0  0  0  0  0  0  0  0  0  0
   20.3735   17.6056    3.9545 H   0  0  0  0  0  0  0  0  0  0  0  0
   19.5627   16.2348    2.1535 H   0  0  0  0  0  0  0  0  0  0  0  0
  2  1  1  0
  3  2  2  0
  4  3  1  0
  5  4  2  0
  6  5  1  0
  7  6  2  0
  7  2  1  0
  8  7  1  0
  9  8  2  0
 10  8  1  0
 11  1  1  0
 12 11  1  0
 13  1  1  0
 14 13  1  0
 15 14  1  0
  4 16  1  0
  5 17  1  0
  6 18  1  0
 11 19  1  0
 11 20  1  0
 12 21  1  0
 12 22  1  0
 12 23  1  0
 13 24  1  0
 13 25  1  0
 14 26  1  0
 14 27  1  0
 15 28  1  0
M  CHG  1  10  -1
M  END
$$$$
=
     RDKit          3D

 41 42  0  0  0  0  0  0  0  0999 V2000
   17.9190   13.9830    3.7780 C   0  0  0  0  0  0  0  0  0  0  0  0
   18.2520   15.2610    4.5310 C   0  0  2  0  0  0  0  0  0  0  0  0
   17.0270   16.1600    4.8060 C   0  0  0  0  0  0  0  0  0  0  0  0
   17.3650   17.2250    5.8550 C   0  0  0  0  0  0  0  0  0  0  0  0
   18.8120   17.7180    5.7560 C   0  0  0  0  0  0  0  0  0  0  0  0
   19.7300   16.5710    5.3080 C   0  0  2  0  0  0  0  0  0  0  0  0
   19.3840   16.1030    3.8580 C   0  0  0  0  0  0  0  0  0  0  0  0
   19.2510   15.1430    5.7370 C   0  0  0  0  0  0  0  0  0  0  0  0
   21.1900   16.8800    5.5600 C   0  0  0  0  0  0  0  0  0  0  0  0
   21.8020   17.5470    4.6690 O   0  0  0  0  0  0  0  0  0  0  0  0
   21.6970   16.4420    6.6390 O   0  0  0  0  0  1  0  0  0  0  0  0
   16.4260   12.0140    2.3410 O   0  0  0  0  0  0  0  0  0  0  0  0
   15.9160   13.0690    2.6820 C   0  0  0  0  0  0  0  0  0  0  0  0
   16.5640   14.1000    3.2890 N   0  0  0  0  0  0  0  0  0  0  0  0
   14.6130   13.4070    2.5350 O   0  0  0  0  0  0  0  0  0  0  0  0
   13.6270   12.9980    3.5140 C   0  0  0  0  0  0  0  0  0  0  0  0
   13.3520   14.1130    4.5290 C   0  0  0  0  0  0  0  0  0  0  0  0
   12.3480   12.7520    2.6970 C   0  0  0  0  0  0  0  0  0  0  0  0
   14.0280   11.6860    4.1980 C   0  0  0  0  0  0  0  0  0  0  0  0
   18.6120   13.8546    2.9335 H   0  0  0  0  0  0  0  0  0  0  0  0
   18.0149   13.1101    4.4404 H   0  0  0  0  0  0  0  0  0  0  0  0
   16.7252   16.6557    3.8716 H   0  0  0  0  0  0  0  0  0  0  0  0
   16.2061   15.5346    5.1869 H   0  0  0  0  0  0  0  0  0  0  0  0
   16.6911   18.0830    5.7145 H   0  0  0  0  0  0  0  0  0  0  0  0
   17.2391   16.7650    6.8462 H   0  0  0  0  0  0  0  0  0  0  0  0
   18.8683   18.5366    5.0234 H   0  0  0  0  0  0  0  0  0  0  0  0
   19.1389   18.0766    6.7432 H   0  0  0  0  0  0  0  0  0  0  0  0
   20.1680   15.5151    3.3583 H   0  0  0  0  0  0  0  0  0  0  0  0
   19.1929   16.8072    3.0348 H   0  0  0  0  0  0  0  0  0  0  0  0
   18.7808   15.0861    6.7298 H   0  0  0  0  0  0  0  0  0  0  0  0
   19.9388   14.2939    5.8634 H   0  0  0  0  0  0  0  0  0  0  0  0
   16.0707   14.9968    3.4042 H   0  0  0  0  0  0  0  0  0  0  0  0
   13.4507   13.7129    5.5489 H   0  0  0  0  0  0  0  0  0  0  0  0
   14.0760   14.9282    4.3833 H   0  0  0  0  0  0  0  0  0  0  0  0
   12.3320   14.4981    4.3833 H   0  0  0  0  0  0  0  0  0  0  0  0
   11.5018   12.5892    3.3807 H   0  0  0  0  0  0  0  0  0  0  0  0
   12.1439   13.6274    2.0629 H   0  0  0  0  0  0  0  0  0  0  0  0
   12.4832   11.8634    2.0629 H   0  0  0  0  0  0  0  0  0  0  0  0
   13.9887   11.8147    5.2897 H   0  0  0  0  0  0  0  0  0  0  0  0
   13.3326   10.8884    3.8975 H   0  0  0  0  0  0  0  0  0  0  0  0
   15.0505   11.4134    3.8975 H   0  0  0  0  0  0  0  0  0  0  0  0
  2  1  1  6
  3  2  1  0
  4  3  1  0
  5  4  1  0
  6  5  1  0
  7  2  1  0
  7  6  1  0
  8  2  1  0
  8  6  1  0
  6  9  1  6
 10  9  2  0
 11  9  1  0
 13 12  2  0
 14 13  1  0
 14  1  1  0
 15 13  1  0
 16 15  1  0
 17 16  1  0
 18 16  1  0
 19 16  1  0
  1 20  1  0
  1 21  1  0
  3 22  1  0
  3 23  1  0
  4 24  1  0
  4 25  1  0
  5 26  1  0
  5 27  1  0
  7 28  1  0
  7 29  1  0
  8 30  1  0
  8 31  1  0
 14 32  1  0
 17 33  1  0
 17 34  1  0
 17 35  1  0
 18 36  1  0
 18 37  1  0
 18 38  1  0
 19 39  1  0
 19 40  1  0
 19 41  1  0
M  CHG  1  11  -1
M  END
$$$$
=
     RDKit          3D

 43 45  0  0  0  0  0  0  0  0999 V2000
   24.8840   25.9630   13.6970 C   0  0  1  0  0  0  0  0  0  0  0  0
   24.9090   26.7260   14.9970 C   0  0  0  0  0  0  0  0  0  0  0  0
   25.9550   27.7890   14.7150 N   0  0  2  0  0  4  0  0  0  0  0  0
   26.9050   27.2180   13.6830 C   0  0  0  0  0  0  0  0  0  0  0  0
   26.3740   25.8060   13.3450 C   0  0  0  0  0  0  0  0  0  0  0  0
   27.0950   24.7390   14.2250 C   0  0  0  0  0  0  0  0  0  0  0  0
   28.2170   23.9840   13.5040 C   0  0  0  0  0  0  0  0  0  0  0  0
   28.9750   24.8690   12.5280 C   0  0  0  0  0  0  0  0  0  0  0  0
   28.0620   25.4520   11.4510 C   0  0  0  0  0  0  0  0  0  0  0  0
   26.5850   25.4910   11.8530 C   0  0  0  0  0  0  0  0  0  0  0  0
   23.7160   24.5350   15.1430 O   0  0  0  0  0  1  0  0  0  0  0  0
   23.9780   24.7640   13.9360 C   0  0  0  0  0  0  0  0  0  0  0  0
   23.6260   24.1550   12.8900 O   0  0  0  0  0  0  0  0  0  0  0  0
   26.5290   28.4760   15.9140 C   0  0  0  0  0  0  0  0  0  0  0  0
   28.0280   28.4880   16.0580 C   0  0  0  0  0  0  0  0  0  0  0  0
   28.7130   27.3500   16.5120 C   0  0  0  0  0  0  0  0  0  0  0  0
   30.1010   27.3650   16.6600 C   0  0  0  0  0  0  0  0  0  0  0  0
   30.8230   28.5140   16.3500 C   0  0  0  0  0  0  0  0  0  0  0  0
   30.1600   29.6470   15.8850 C   0  0  0  0  0  0  0  0  0  0  0  0
   28.7710   29.6340   15.7350 C   0  0  0  0  0  0  0  0  0  0  0  0
   24.4385   26.4022   12.7922 H   0  0  0  0  0  0  0  0  0  0  0  0
   23.9295   27.1764   15.2157 H   0  0  0  0  0  0  0  0  0  0  0  0
   25.1341   26.1022   15.8746 H   0  0  0  0  0  0  0  0  0  0  0  0
   25.5196   28.6258   14.3013 H   0  0  0  0  0  0  0  0  0  0  0  0
   26.9132   27.8485   12.7817 H   0  0  0  0  0  0  0  0  0  0  0  0
   27.9359   27.1786   14.0646 H   0  0  0  0  0  0  0  0  0  0  0  0
   27.5279   25.2480   15.0988 H   0  0  0  0  0  0  0  0  0  0  0  0
   26.3366   23.9911   14.4997 H   0  0  0  0  0  0  0  0  0  0  0  0
   28.9234   23.5995   14.2545 H   0  0  0  0  0  0  0  0  0  0  0  0
   27.7566   23.1671   12.9289 H   0  0  0  0  0  0  0  0  0  0  0  0
   29.4383   25.6962   13.0858 H   0  0  0  0  0  0  0  0  0  0  0  0
   29.7341   24.2491   12.0286 H   0  0  0  0  0  0  0  0  0  0  0  0
   28.3908   26.4794   11.2355 H   0  0  0  0  0  0  0  0  0  0  0  0
   28.1394   24.7944   10.5726 H   0  0  0  0  0  0  0  0  0  0  0  0
   26.1368   24.5103   11.6353 H   0  0  0  0  0  0  0  0  0  0  0  0
   26.1091   26.2980   11.2766 H   0  0  0  0  0  0  0  0  0  0  0  0
   26.1924   29.5229   15.8863 H   0  0  0  0  0  0  0  0  0  0  0  0
   26.1701   27.8884   16.7719 H   0  0  0  0  0  0  0  0  0  0  0  0
   28.1499   26.4365   16.7538 H   0  0  0  0  0  0  0  0  0  0  0  0
   30.6247   26.4679   17.0220 H   0  0  0  0  0  0  0  0  0  0  0  0
   31.9161   28.5271   16.4722 H   0  0  0  0  0  0  0  0  0  0  0  0
   30.7308   30.5536   15.6354 H   0  0  0  0  0  0  0  0  0  0  0  0
   28.2550   30.5303   15.3603 H   0  0  0  0  0  0  0  0  0  0  0  0
  2  1  1  0
  3  2  1  0
  4  3  1  0
  5  4  1  0
  5  1  1  0
  6  5  1  0
  7  6  1  0
  8  7  1  0
  9  8  1  0
 10  5  1  0
 10  9  1  0
 12 11  1  0
 12  1  1  0
 13 12  2  0
 14  3  1  0
 15 14  1  0
 16 15  2  0
 17 16  1  0
 18 17  2  0
 19 18  1  0
 20 19  2  0
 20 15  1  0
  1 21  1  6
  2 22  1  0
  2 23  1  0
  3 24  1  6
  4 25  1  0
  4 26  1  0
  6 27  1  0
  6 28  1  0
  7 29  1  0
  7 30  1  0
  8 31  1  0
  8 32  1  0
  9 33  1  0
  9 34  1  0
 10 35  1  0
 10 36  1  0
 14 37  1  0
 14 38  1  0
 16 39  1  0
 17 40  1  0
 18 41  1  0
 19 42  1  0
 20 43  1  0
M  CHG  2   3   1  11  -1
M  END
$$$$
=
     RDKit          3D

 37 38  0  0  0  0  0  0  0  0999 V2000
   20.4050   17.2580    4.2970 C   0  0  2  0  0  0  0  0  0  0  0  0
   18.8990   17.3680    4.4920 C   0  0  0  0  0  0  0  0  0  0  0  0
   18.3830   15.9580    4.2320 N   0  0  1  0  0  4  0  0  0  0  0  0
   19.5850   15.0220    4.2920 C   0  0  0  0  0  0  0  0  0  0  0  0
   20.7290   15.8650    4.8140 C   0  0  2  0  0  0  0  0  0  0  0  0
   20.6390   15.4970    6.2870 C   0  0  0  0  0  0  0  0  0  0  0  0
   21.5110   16.0460    7.0080 O   0  0  0  0  0  0  0  0  0  0  0  0
   19.7710   14.6310    6.5740 O   0  0  0  0  0  1  0  0  0  0  0  0
   21.2110   18.3720    4.9720 C   0  0  0  0  0  0  0  0  0  0  0  0
   22.7190   18.2140    4.8020 C   0  0  0  0  0  0  0  0  0  0  0  0
   23.3750   18.3340    6.0560 O   0  0  0  0  0  0  0  0  0  0  0  0
   17.2900   15.5590    5.1900 C   0  0  0  0  0  0  0  0  0  0  0  0
   16.1630   14.8350    4.4990 C   0  0  0  0  0  0  0  0  0  0  0  0
   16.4280   13.9490    3.4450 C   0  0  0  0  0  0  0  0  0  0  0  0
   15.3900   13.2550    2.8250 C   0  0  0  0  0  0  0  0  0  0  0  0
   14.0750   13.4380    3.2510 C   0  0  0  0  0  0  0  0  0  0  0  0
   13.7980   14.3170    4.2960 C   0  0  0  0  0  0  0  0  0  0  0  0
   14.8350   15.0120    4.9200 C   0  0  0  0  0  0  0  0  0  0  0  0
   20.6945   17.3929    3.2444 H   0  0  0  0  0  0  0  0  0  0  0  0
   18.6609   17.6874    5.5173 H   0  0  0  0  0  0  0  0  0  0  0  0
   18.4416   18.1132    3.8246 H   0  0  0  0  0  0  0  0  0  0  0  0
   17.9415   15.9067    3.3028 H   0  0  0  0  0  0  0  0  0  0  0  0
   19.3844   14.1820    4.9734 H   0  0  0  0  0  0  0  0  0  0  0  0
   19.8140   14.5885    3.3073 H   0  0  0  0  0  0  0  0  0  0  0  0
   21.7830   15.7448    4.5231 H   0  0  0  0  0  0  0  0  0  0  0  0
   20.9094   19.3352    4.5347 H   0  0  0  0  0  0  0  0  0  0  0  0
   20.9976   18.3211    6.0499 H   0  0  0  0  0  0  0  0  0  0  0  0
   22.9335   17.2235    4.3743 H   0  0  0  0  0  0  0  0  0  0  0  0
   23.0866   19.0040    4.1306 H   0  0  0  0  0  0  0  0  0  0  0  0
   22.7168   18.2136    6.7856 H   0  0  0  0  0  0  0  0  0  0  0  0
   17.7168   14.8982    5.9589 H   0  0  0  0  0  0  0  0  0  0  0  0
   16.8789   16.4774    5.6345 H   0  0  0  0  0  0  0  0  0  0  0  0
   17.4634   13.8003    3.1046 H   0  0  0  0  0  0  0  0  0  0  0  0
   15.6086   12.5623    1.9989 H   0  0  0  0  0  0  0  0  0  0  0  0
   13.2567   12.8887    2.7624 H   0  0  0  0  0  0  0  0  0  0  0  0
   12.7601   14.4634    4.6298 H   0  0  0  0  0  0  0  0  0  0  0  0
   14.6108   15.7025    5.7464 H   0  0  0  0  0  0  0  0  0  0  0  0
  2  1  1  0
  3  2  1  0
  4  3  1  0
  5  4  1  0
  5  1  1  0
  6  5  1  0
  7  6  2  0
  8  6  1  0
  9  1  1  0
 10  9  1  0
 11 10  1  0
 12  3  1  0
 13 12  1  0
 14 13  2  0
 15 14  1  0
 16 15  2  0
 17 16  1  0
 18 17  2  0
 18 13  1  0
  1 19  1  6
  2 20  1  0
  2 21  1  0
  3 22  1  6
  4 23  1  0
  4 24  1  0
  5 25  1  6
  9 26  1  0
  9 27  1  0
 10 28  1  0
 10 29  1  0
 11 30  1  0
 12 31  1  0
 12 32  1  0
 14 33  1  0
 15 34  1  0
 16 35  1  0
 17 36  1  0
 18 37  1  0
M  CHG  2   3   1   8  -1
M  END
$$$$
=
     RDKit          3D

 44 45  0  0  0  0  0  0  0  0999 V2000
   28.7770   27.6460   15.4930 C   0  0  2  0  0  0  0  0  0  0  0  0
   29.0760   28.9660   14.7000 C   0  0  0  0  0  0  0  0  0  0  0  0
   28.2230   29.2920   13.8130 O   0  0  0  0  0  0  0  0  0  0  0  0
   30.0890   29.6460   15.0580 O   0  0  0  0  0  1  0  0  0  0  0  0
   29.6640   26.5750   14.8130 C   0  0  0  0  0  0  0  0  0  0  0  0
   30.8480   26.3690   15.1150 O   0  0  0  0  0  0  0  0  0  0  0  0
   29.1510   25.7570   13.6830 C   0  0  0  0  0  0  0  0  0  0  0  0
   29.0850   24.3700   13.8650 C   0  0  0  0  0  0  0  0  0  0  0  0
   28.5770   23.5490   12.8560 C   0  0  0  0  0  0  0  0  0  0  0  0
   28.1270   24.1060   11.6530 C   0  0  0  0  0  0  0  0  0  0  0  0
   28.1670   25.4960   11.4890 C   0  0  0  0  0  0  0  0  0  0  0  0
   28.6760   26.3200   12.4990 C   0  0  0  0  0  0  0  0  0  0  0  0
   27.5630   23.2320   10.5750 C   0  0  0  0  0  0  0  0  0  0  0  0
   27.3750   27.2930   15.2560 O   0  0  0  0  0  0  0  0  0  0  0  0
   26.8330   26.1350   15.6660 C   0  0  0  0  0  0  0  0  0  0  0  0
   27.0200   25.5320   16.7120 O   0  0  0  0  0  0  0  0  0  0  0  0
   23.3190   24.2790   11.4300 C   0  0  0  0  0  0  0  0  0  0  0  0
   24.2000   24.7540   12.5440 C   0  0  0  0  0  0  0  0  0  0  0  0
   24.7100   23.8430   13.4780 C   0  0  0  0  0  0  0  0  0  0  0  0
   25.5640   24.2740   14.4980 C   0  0  0  0  0  0  0  0  0  0  0  0
   25.9290   25.6220   14.5940 C   0  0  0  0  0  0  0  0  0  0  0  0
   25.4310   26.5320   13.6510 C   0  0  0  0  0  0  0  0  0  0  0  0
   24.5770   26.1000   12.6310 C   0  0  0  0  0  0  0  0  0  0  0  0
   29.0430   27.8920   16.9900 C   0  0  1  0  0  0  0  0  0  0  0  0
   27.8440   28.6110   17.6870 C   0  0  0  0  0  0  0  0  0  0  0  0
   27.2920   29.5660   17.0770 O   0  0  0  0  0  0  0  0  0  0  0  0
   27.6570   28.2190   18.8900 O   0  0  0  0  0  1  0  0  0  0  0  0
   29.2450   26.6300   17.7060 O   0  0  0  0  0  0  0  0  0  0  0  0
   29.4352   23.9248   14.8079 H   0  0  0  0  0  0  0  0  0  0  0  0
   28.5302   22.4604   13.0070 H   0  0  0  0  0  0  0  0  0  0  0  0
   27.7944   25.9449   10.5565 H   0  0  0  0  0  0  0  0  0  0  0  0
   28.7014   27.4108   12.3591 H   0  0  0  0  0  0  0  0  0  0  0  0
   27.0203   22.3910   11.0313 H   0  0  0  0  0  0  0  0  0  0  0  0
   26.8726   23.8186    9.9511 H   0  0  0  0  0  0  0  0  0  0  0  0
   28.3819   22.8446    9.9511 H   0  0  0  0  0  0  0  0  0  0  0  0
   22.4243   23.7966   11.8504 H   0  0  0  0  0  0  0  0  0  0  0  0
   23.0166   25.1363   10.8107 H   0  0  0  0  0  0  0  0  0  0  0  0
   23.8691   23.5552   10.8107 H   0  0  0  0  0  0  0  0  0  0  0  0
   24.4364   22.7798   13.4085 H   0  0  0  0  0  0  0  0  0  0  0  0
   25.9513   23.5494   15.2294 H   0  0  0  0  0  0  0  0  0  0  0  0
   25.7138   27.5932   13.7137 H   0  0  0  0  0  0  0  0  0  0  0  0
   24.1990   26.8222   11.8923 H   0  0  0  0  0  0  0  0  0  0  0  0
   29.9439   28.5218   17.0316 H   0  0  0  0  0  0  0  0  0  0  0  0
   29.2184   26.7962   18.6816 H   0  0  0  0  0  0  0  0  0  0  0  0
  2  1  1  0
  3  2  2  0
  4  2  1  0
  5  1  1  0
  6  5  2  0
  7  5  1  0
  8  7  2  0
  9  8  1  0
 10  9  2  0
 11 10  1  0
 12 11  2  0
 12  7  1  0
 13 10  1  0
  1 14  1  1
 15 14  1  0
 16 15  2  0
 18 17  1  0
 19 18  2  0
 20 19  1  0
 21 20  2  0
 21 15  1  0
 22 21  1  0
 23 22  2  0
 23 18  1  0
 24  1  1  0
 25 24  1  0
 26 25  2  0
 27 25  1  0
 28 24  1  0
  8 29  1  0
  9 30  1  0
 11 31  1  0
 12 32  1  0
 13 33  1  0
 13 34  1  0
 13 35  1  0
 17 36  1  0
 17 37  1  0
 17 38  1  0
 19 39  1  0
 20 40  1  0
 22 41  1  0
 23 42  1  0
 24 43  1  6
 28 44  1  0
M  CHG  2   4  -1  27  -1
M  END
$$$$
=
     RDKit          3D

 28 28  0  0  0  0  0  0  0  0999 V2000
   29.7800   26.2730   15.1120 C   0  0  0  0  0  0  0  0  0  0  0  0
   29.3900   25.5170   14.0560 N   0  0  0  0  0  0  0  0  0  0  0  0
   28.5870   26.1010   13.1540 C   0  0  0  0  0  0  0  0  0  0  0  0
   28.1520   27.3700   13.2210 N   0  0  0  0  0  0  0  0  0  0  0  0
   28.5630   28.1010   14.2860 C   0  0  0  0  0  0  0  0  0  0  0  0
   29.3920   27.5870   15.2710 C   0  0  0  0  0  0  0  0  0  0  0  0
   28.0690   29.5180   14.3460 C   0  0  0  0  0  0  0  0  0  0  0  0
   29.8360   28.4280   16.4030 C   0  0  0  0  0  0  0  0  0  0  0  0
   30.8510   29.1620   16.1990 O   0  0  0  0  0  0  0  0  0  0  0  0
   29.1280   28.3890   17.4540 O   0  0  0  0  0  1  0  0  0  0  0  0
   28.1320   25.2790   11.9700 C   0  0  0  0  0  0  0  0  0  0  0  0
   28.5650   23.8210   12.1220 C   0  0  0  0  0  0  0  0  0  0  0  0
   26.6200   25.3880   11.7780 C   0  0  0  0  0  0  0  0  0  0  0  0
   30.7230   23.7610   15.4830 C   0  0  0  0  0  0  0  0  0  0  0  0
   30.8060   25.3850   16.2710 S   0  0  0  0  0  0  0  0  0  0  0  0
   27.9620   29.8248   15.3969 H   0  0  0  0  0  0  0  0  0  0  0  0
   28.7897   30.1792   13.8425 H   0  0  0  0  0  0  0  0  0  0  0  0
   27.0935   29.5879   13.8425 H   0  0  0  0  0  0  0  0  0  0  0  0
   28.6148   25.6826   11.0678 H   0  0  0  0  0  0  0  0  0  0  0  0
   28.6395   23.5701   13.1904 H   0  0  0  0  0  0  0  0  0  0  0  0
   27.8226   23.1661   11.6425 H   0  0  0  0  0  0  0  0  0  0  0  0
   29.5445   23.6775   11.6425 H   0  0  0  0  0  0  0  0  0  0  0  0
   26.1272   25.4235   12.7608 H   0  0  0  0  0  0  0  0  0  0  0  0
   26.3867   26.3053   11.2175 H   0  0  0  0  0  0  0  0  0  0  0  0
   26.2576   24.5137   11.2175 H   0  0  0  0  0  0  0  0  0  0  0  0
   30.6831   22.9798   16.2564 H   0  0  0  0  0  0  0  0  0  0  0  0
   29.8207   23.7031   14.8565 H   0  0  0  0  0  0  0  0  0  0  0  0
   31.6147   23.6115   14.8565 H   0  0  0  0  0  0  0  0  0  0  0  0
  2  1  2  0
  3  2  1  0
  4  3  2  0
  5  4  1  0
  6  1  1  0
  6  5  2  0
  7  5  1  0
  8  6  1  0
  9  8  2  0
 10  8  1  0
 11  3  1  0
 12 11  1  0
 13 11  1  0
 15 14  1  0
 15  1  1  0
  7 16  1  0
  7 17  1  0
  7 18  1  0
 11 19  1  0
 12 20  1  0
 12 21  1  0
 12 22  1  0
 13 23  1  0
 13 24  1  0
 13 25  1  0
 14 26  1  0
 14 27  1  0
 14 28  1  0
M  CHG  1  10  -1
M  END
$$$$
=
     RDKit          3D

 29 30  0  0  0  0  0  0  0  0999 V2000
   28.4730   25.0290   13.5660 C   0  0  0  0  0  0  0  0  0  0  0  0
   28.7350   24.2930   12.4820 C   0  0  0  0  0  0  0  0  0  0  0  0
   27.6650   24.0640   11.4930 C   0  0  0  0  0  0  0  0  0  0  0  0
   27.9110   23.3930   10.4920 O   0  0  0  0  0  0  0  0  0  0  0  0
   26.3910   24.5750   11.8050 N   0  0  0  0  0  0  0  0  0  0  0  0
   26.1800   25.4630   12.8820 C   0  0  0  0  0  0  0  0  0  0  0  0
   27.2080   25.6910   13.7260 C   0  0  0  0  0  0  0  0  0  0  0  0
   26.9960   26.7130   14.7830 C   0  0  0  0  0  0  0  0  0  0  0  0
   27.8540   27.5340   15.0980 O   0  0  0  0  0  0  0  0  0  0  0  0
   25.7130   26.7210   15.2800 N   0  0  0  0  0  0  0  0  0  0  0  0
   24.6790   26.7030   14.3690 C   0  0  0  0  0  0  0  0  0  0  0  0
   23.5790   27.2080   14.6160 O   0  0  0  0  0  0  0  0  0  0  0  0
   24.9720   26.1340   13.1190 N   0  0  0  0  0  0  0  0  0  0  0  0
   23.9970   26.3940   12.0740 C   0  0  0  0  0  0  0  0  0  0  0  0
   25.5030   27.4310   16.5210 C   0  0  0  0  0  0  0  0  0  0  0  0
   25.3080   24.0020   11.0290 C   0  0  0  0  0  0  0  0  0  0  0  0
   30.4950   25.7240   14.5670 O   0  0  0  0  0  1  0  0  0  0  0  0
   29.4660   25.0060   14.7200 C   0  0  0  0  0  0  0  0  0  0  0  0
   29.1790   24.1900   15.6450 O   0  0  0  0  0  0  0  0  0  0  0  0
   29.7360   23.8633   12.3291 H   0  0  0  0  0  0  0  0  0  0  0  0
   23.0300   26.6519   12.5306 H   0  0  0  0  0  0  0  0  0  0  0  0
   24.3427   27.2313   11.4500 H   0  0  0  0  0  0  0  0  0  0  0  0
   23.8799   25.4957   11.4500 H   0  0  0  0  0  0  0  0  0  0  0  0
   25.7023   26.7571   17.3672 H   0  0  0  0  0  0  0  0  0  0  0  0
   26.1847   28.2929   16.5702 H   0  0  0  0  0  0  0  0  0  0  0  0
   24.4622   27.7834   16.5702 H   0  0  0  0  0  0  0  0  0  0  0  0
   24.5437   23.5976   11.7090 H   0  0  0  0  0  0  0  0  0  0  0  0
   24.8594   24.7808   10.3947 H   0  0  0  0  0  0  0  0  0  0  0  0
   25.6995   23.1930   10.3947 H   0  0  0  0  0  0  0  0  0  0  0  0
  2  1  2  0
  3  2  1  0
  4  3  2  0
  5  3  1  0
  6  5  1  0
  7  6  2  0
  7  1  1  0
  8  7  1  0
  9  8  2  0
 10  8  1  0
 11 10  1  0
 12 11  2  0
 13 11  1  0
 13  6  1  0
 14 13  1  0
 15 10  1  0
 16  5  1  0
 18 17  1  0
 18  1  1  0
 19 18  2  0
  2 20  1  0
 14 21  1  0
 14 22  1  0
 14 23  1  0
 15 24  1  0
 15 25  1  0
 15 26  1  0
 16 27  1  0
 16 28  1  0
 16 29  1  0
M  CHG  1  17  -1
M  END
$$$$
=
     RDKit          3D

 26 27  0  0  0  0  0  0  0  0999 V2000
   15.0390   13.6390    3.4650 C   0  0  0  0  0  0  0  0  0  0  0  0
   15.8510   12.5940    2.9890 C   0  0  0  0  0  0  0  0  0  0  0  0
   17.2440   12.7260    2.9680 C   0  0  0  0  0  0  0  0  0  0  0  0
   17.7930   13.9090    3.4150 C   0  0  0  0  0  0  0  0  0  0  0  0
   17.0060   14.9430    3.8870 C   0  0  0  0  0  0  0  0  0  0  0  0
   15.6270   14.8250    3.9250 C   0  0  0  0  0  0  0  0  0  0  0  0
   17.8820   16.0400    4.3650 C   0  0  0  0  0  0  0  0  0  0  0  0
   19.1970   15.6200    3.7010 C   0  0  2  0  0  0  0  0  0  0  0  0
   19.1350   14.1710    3.4560 O   0  0  0  0  0  0  0  0  0  0  0  0
   20.4680   15.9920    4.4980 C   0  0  0  0  0  0  0  0  0  0  0  0
   20.8560   15.1430    5.3540 O   0  0  0  0  0  0  0  0  0  0  0  0
   20.9540   17.1370    4.2560 O   0  0  0  0  0  1  0  0  0  0  0  0
   13.6710   13.6200    3.5370 O   0  0  0  0  0  0  0  0  0  0  0  0
   11.8580   12.4090    2.5800 C   0  0  0  0  0  0  0  0  0  0  0  0
   13.0430   12.3410    3.5270 C   0  0  0  0  0  0  0  0  0  0  0  0
   15.3866   11.6638    2.6297 H   0  0  0  0  0  0  0  0  0  0  0  0
   17.8836   11.9081    2.6047 H   0  0  0  0  0  0  0  0  0  0  0  0
   15.0047   15.6467    4.3090 H   0  0  0  0  0  0  0  0  0  0  0  0
   17.5390   17.0232    4.0106 H   0  0  0  0  0  0  0  0  0  0  0  0
   17.9267   16.1617    5.4573 H   0  0  0  0  0  0  0  0  0  0  0  0
   19.2910   16.1845    2.7616 H   0  0  0  0  0  0  0  0  0  0  0  0
   10.9261   12.4625    3.1620 H   0  0  0  0  0  0  0  0  0  0  0  0
   11.9462   13.3036    1.9460 H   0  0  0  0  0  0  0  0  0  0  0  0
   11.8433   11.5102    1.9460 H   0  0  0  0  0  0  0  0  0  0  0  0
   12.6976   12.0865    4.5399 H   0  0  0  0  0  0  0  0  0  0  0  0
   13.7531   11.5686    3.1966 H   0  0  0  0  0  0  0  0  0  0  0  0
  2  1  2  0
  3  2  1  0
  4  3  2  0
  5  4  1  0
  6  1  1  0
  6  5  2  0
  7  5  1  0
  8  7  1  0
  9  8  1  0
  9  4  1  0
 10  8  1  0
 11 10  2  0
 12 10  1  0
 13  1  1  0
 15 14  1  0
 15 13  1  0
  2 16  1  0
  3 17  1  0
  6 18  1  0
  7 19  1  0
  7 20  1  0
  8 21  1  6
 14 22  1  0
 14 23  1  0
 14 24  1  0
 15 25  1  0
 15 26  1  0
M  CHG  1  12  -1
M  END
$$$$
=
     RDKit          3D

 46 47  0  0  0  0  0  0  0  0999 V2000
   25.6010   26.5250   14.2060 C   0  0  2  0  0  0  0  0  0  0  0  0
   26.6290   25.3740   14.3440 C   0  0  0  0  0  0  0  0  0  0  0  0
   26.8590   24.8560   15.4470 O   0  0  0  0  0  0  0  0  0  0  0  0
   27.2830   24.9300   13.2120 N   0  0  0  0  0  0  0  0  0  0  0  0
   26.9970   25.3560   11.8490 C   0  0  0  0  0  0  0  0  0  0  0  0
   27.2400   24.1070   11.0200 C   0  0  0  0  0  0  0  0  0  0  0  0
   28.4080   23.4480   11.7340 C   0  0  0  0  0  0  0  0  0  0  0  0
   28.1600   23.7500   13.2210 C   0  0  1  0  0  0  0  0  0  0  0  0
   29.5210   23.8840   13.9470 C   0  0  0  0  0  0  0  0  0  0  0  0
   30.0310   24.9680   14.2310 O   0  0  0  0  0  0  0  0  0  0  0  0
   30.2380   22.7410   14.1350 N   0  0  0  0  0  0  0  0  0  0  0  0
   26.0650   27.6370   15.0390 N   0  0  0  0  0  0  0  0  0  0  0  0
   27.1190   28.4310   14.6520 C   0  0  0  0  0  0  0  0  0  0  0  0
   27.7030   28.3180   13.5780 O   0  0  0  0  0  0  0  0  0  0  0  0
   27.5230   29.5030   15.6820 C   0  0  2  0  0  0  0  0  0  0  0  0
   29.0380   29.6320   15.7730 C   0  0  0  0  0  0  0  0  0  0  0  0
   29.4220   28.6720   16.8980 C   0  0  0  0  0  0  0  0  0  0  0  0
   28.1910   28.6600   17.7670 C   0  0  0  0  0  0  0  0  0  0  0  0
   28.1060   28.2190   18.8990 O   0  0  0  0  0  0  0  0  0  0  0  0
   27.1490   29.1970   17.0440 N   0  0  0  0  0  0  0  0  0  0  0  0
   24.2350   26.0290   14.7080 C   0  0  0  0  0  0  0  0  0  0  0  0
   23.4360   27.0990   15.4520 C   0  0  0  0  0  0  0  0  0  0  0  0
   24.5040   26.3490   17.4290 O   0  0  0  0  0  1  0  0  0  0  0  0
   23.5510   27.0410   16.9750 C   0  0  0  0  0  0  0  0  0  0  0  0
   22.6710   27.7040   17.5900 O   0  0  0  0  0  0  0  0  0  0  0  0
   25.5034   26.8506   13.1598 H   0  0  0  0  0  0  0  0  0  0  0  0
   25.9539   25.6923   11.7543 H   0  0  0  0  0  0  0  0  0  0  0  0
   27.6184   26.2057   11.5299 H   0  0  0  0  0  0  0  0  0  0  0  0
   26.3555   23.4530   11.0210 H   0  0  0  0  0  0  0  0  0  0  0  0
   27.4435   24.3215    9.9605 H   0  0  0  0  0  0  0  0  0  0  0  0
   28.4146   22.3632   11.5521 H   0  0  0  0  0  0  0  0  0  0  0  0
   29.3813   23.8230   11.3845 H   0  0  0  0  0  0  0  0  0  0  0  0
   27.6541   22.9604   13.7960 H   0  0  0  0  0  0  0  0  0  0  0  0
   31.1497   22.7777   14.6128 H   0  0  0  0  0  0  0  0  0  0  0  0
   29.8684   21.8401   13.7993 H   0  0  0  0  0  0  0  0  0  0  0  0
   25.5918   27.8283   15.9336 H   0  0  0  0  0  0  0  0  0  0  0  0
   27.0053   30.4025   15.3174 H   0  0  0  0  0  0  0  0  0  0  0  0
   29.5135   29.3357   14.8264 H   0  0  0  0  0  0  0  0  0  0  0  0
   29.3649   30.6644   15.9664 H   0  0  0  0  0  0  0  0  0  0  0  0
   29.6382   27.6678   16.5045 H   0  0  0  0  0  0  0  0  0  0  0  0
   30.3309   28.9771   17.4374 H   0  0  0  0  0  0  0  0  0  0  0  0
   26.2087   29.3620   17.4306 H   0  0  0  0  0  0  0  0  0  0  0  0
   23.6460   25.6936   13.8416 H   0  0  0  0  0  0  0  0  0  0  0  0
   24.4277   25.2137   15.4208 H   0  0  0  0  0  0  0  0  0  0  0  0
   23.7919   28.0852   15.1192 H   0  0  0  0  0  0  0  0  0  0  0  0
   22.3776   26.9168   15.2140 H   0  0  0  0  0  0  0  0  0  0  0  0
  2  1  1  0
  3  2  2  0
  4  2  1  0
  5  4  1  0
  6  5  1  0
  7  6  1  0
  8  7  1  0
  8  4  1  0
  9  8  1  0
 10  9  2  0
 11  9  1  0
 12  1  1  0
 13 12  1  0
 14 13  2  0
 15 13  1  0
 16 15  1  0
 17 16  1  0
 18 17  1  0
 19 18  2  0
 20 15  1  0
 20 18  1  0
 21  1  1  0
 22 21  1  0
 24 22  1  0
 24 23  1  0
 25 24  2  0
  1 26  1  6
  5 27  1  0
  5 28  1  0
  6 29  1  0
  6 30  1  0
  7 31  1  0
  7 32  1  0
  8 33  1  1
 11 34  1  0
 11 35  1  0
 12 36  1  0
 15 37  1  6
 16 38  1  0
 16 39  1  0
 17 40  1  0
 17 41  1  0
 20 42  1  0
 21 43  1  0
 21 44  1  0
 22 45  1  0
 22 46  1  0
M  CHG  1  23  -1
M  END
$$$$
=
     RDKit          3D

 22 21  0  0  0  0  0  0  0  0999 V2000
   20.3000   16.4400    5.1100 C   0  0  1  0  0  0  0  0  0  0  0  0
   20.2540   16.7680    3.7060 O   0  0  0  0  0  0  0  0  0  0  0  0
   19.6230   15.0710    5.3210 C   0  0  2  0  0  0  0  0  0  0  0  0
   18.7240   14.6400    4.1480 C   0  0  0  0  0  0  0  0  0  0  0  0
   19.1640   14.0480    3.1540 O   0  0  0  0  0  0  0  0  0  0  0  0
   17.2510   15.0230    4.2100 C   0  0  0  0  0  0  0  0  0  0  0  0
   17.0890   16.3760    4.6240 O   0  0  0  0  0  0  0  0  0  0  0  0
   18.8930   15.0200    6.5530 O   0  0  0  0  0  0  0  0  0  0  0  0
   21.7400   16.4810    5.6200 C   0  0  1  0  0  0  0  0  0  0  0  0
   22.1420   17.9730    5.7790 C   0  0  0  0  0  0  0  0  0  0  0  0
   21.1670   18.7710    5.6310 O   0  0  0  0  0  0  0  0  0  0  0  0
   23.3660   18.1930    6.0040 O   0  0  0  0  0  1  0  0  0  0  0  0
   21.8510   15.8250    6.9040 O   0  0  0  0  0  0  0  0  0  0  0  0
   19.7462   17.1846    5.7007 H   0  0  0  0  0  0  0  0  0  0  0  0
   20.1173   17.7427    3.5991 H   0  0  0  0  0  0  0  0  0  0  0  0
   20.4501   14.3475    5.3704 H   0  0  0  0  0  0  0  0  0  0  0  0
   16.8049   14.8969    3.2125 H   0  0  0  0  0  0  0  0  0  0  0  0
   16.7517   14.3718    4.9425 H   0  0  0  0  0  0  0  0  0  0  0  0
   17.0837   16.4201    5.6130 H   0  0  0  0  0  0  0  0  0  0  0  0
   19.5254   15.0642    7.3134 H   0  0  0  0  0  0  0  0  0  0  0  0
   22.3978   15.9606    4.9083 H   0  0  0  0  0  0  0  0  0  0  0  0
   21.7381   16.4924    7.6264 H   0  0  0  0  0  0  0  0  0  0  0  0
  2  1  1  0
  3  1  1  0
  4  3  1  0
  5  4  2  0
  6  4  1  0
  7  6  1  0
  8  3  1  0
  9  1  1  0
 10  9  1  0
 11 10  2  0
 12 10  1  0
 13  9  1  0
  1 14  1  1
  2 15  1  0
  3 16  1  1
  6 17  1  0
  6 18  1  0
  7 19  1  0
  8 20  1  0
  9 21  1  6
 13 22  1  0
M  CHG  1  12  -1
M  END
$$$$
=
     RDKit          3D

 31 31  0  0  0  0  0  0  0  0999 V2000
   14.8030   13.6590    3.5760 C   0  0  0  0  0  0  0  0  0  0  0  0
   16.1360   13.6780    3.1690 C   0  0  0  0  0  0  0  0  0  0  0  0
   17.0320   14.5910    3.7410 C   0  0  0  0  0  0  0  0  0  0  0  0
   16.6070   15.4950    4.7210 C   0  0  0  0  0  0  0  0  0  0  0  0
   15.2730   15.4620    5.1410 C   0  0  0  0  0  0  0  0  0  0  0  0
   14.3810   14.5490    4.5680 C   0  0  0  0  0  0  0  0  0  0  0  0
   17.6100   16.4390    5.2980 C   0  0  0  0  0  0  0  0  0  0  0  0
   17.2330   17.3510    6.0280 O   0  0  0  0  0  0  0  0  0  0  0  0
   18.9180   16.2010    4.9770 N   0  0  0  0  0  0  0  0  0  0  0  0
   20.0740   16.9110    5.5570 C   0  0  2  0  0  0  0  0  0  0  0  0
   20.6800   17.8790    4.5500 C   0  0  0  0  0  0  0  0  0  0  0  0
   21.1790   15.9020    6.0230 C   0  0  0  0  0  0  0  0  0  0  0  0
   21.8480   15.3980    5.0640 O   0  0  0  0  0  0  0  0  0  0  0  0
   21.2730   15.6990    7.2650 O   0  0  0  0  0  1  0  0  0  0  0  0
   13.8270   12.8230    3.1110 O   0  0  0  0  0  0  0  0  0  0  0  0
   11.5340   12.3670    2.4730 C   0  0  0  0  0  0  0  0  0  0  0  0
   12.4650   13.1350    3.3960 C   0  0  0  0  0  0  0  0  0  0  0  0
   16.4850   12.9755    2.3979 H   0  0  0  0  0  0  0  0  0  0  0  0
   18.0827   14.5972    3.4156 H   0  0  0  0  0  0  0  0  0  0  0  0
   14.9252   16.1541    5.9220 H   0  0  0  0  0  0  0  0  0  0  0  0
   13.3333   14.5313    4.9027 H   0  0  0  0  0  0  0  0  0  0  0  0
   19.1107   15.4704    4.2770 H   0  0  0  0  0  0  0  0  0  0  0  0
   19.7065   17.4737    6.4278 H   0  0  0  0  0  0  0  0  0  0  0  0
   21.1899   18.6935    5.0854 H   0  0  0  0  0  0  0  0  0  0  0  0
   21.4052   17.3448    3.9186 H   0  0  0  0  0  0  0  0  0  0  0  0
   19.8827   18.2980    3.9186 H   0  0  0  0  0  0  0  0  0  0  0  0
   10.8233   11.7808    3.0741 H   0  0  0  0  0  0  0  0  0  0  0  0
   10.9808   13.0749    1.8384 H   0  0  0  0  0  0  0  0  0  0  0  0
   12.1239   11.6893    1.8384 H   0  0  0  0  0  0  0  0  0  0  0  0
   12.3045   14.2140    3.2546 H   0  0  0  0  0  0  0  0  0  0  0  0
   12.2468   12.8499    4.4358 H   0  0  0  0  0  0  0  0  0  0  0  0
  2  1  2  0
  3  2  1  0
  4  3  2  0
  5  4  1  0
  6  5  2  0
  6  1  1  0
  7  4  1  0
  8  7  2  0
  9  7  1  0
 10  9  1  0
 11 10  1  0
 12 10  1  0
 13 12  2  0
 14 12  1  0
 15  1  1  0
 17 16  1  0
 17 15  1  0
  2 18  1  0
  3 19  1  0
  5 20  1  0
  6 21  1  0
  9 22  1  0
 10 23  1  1
 11 24  1  0
 11 25  1  0
 11 26  1  0
 16 27  1  0
 16 28  1  0
 16 29  1  0
 17 30  1  0
 17 31  1  0
M  CHG  1  14  -1
M  END
$$$$
=
     RDKit          3D

 27 27  0  0  0  0  0  0  0  0999 V2000
   18.9360   16.6720    4.9750 C   0  0  0  0  0  0  0  0  0  0  0  0
   17.4890   16.8130    5.3660 C   0  0  0  0  0  0  0  0  0  0  0  0
   17.1570   17.5210    6.3200 O   0  0  0  0  0  0  0  0  0  0  0  0
   16.5900   16.0780    4.6210 N   0  0  0  0  0  0  0  0  0  0  0  0
   15.1890   16.4120    4.7520 C   0  0  0  0  0  0  0  0  0  0  0  0
   16.9100   14.8750    4.0130 C   0  0  0  0  0  0  0  0  0  0  0  0
   16.0330   14.0740    3.6670 O   0  0  0  0  0  0  0  0  0  0  0  0
   18.2570   14.5530    3.9380 N   0  0  0  0  0  0  0  0  0  0  0  0
   19.2690   15.2670    4.5510 C   0  0  0  0  0  0  0  0  0  0  0  0
   20.3880   14.7940    4.7770 O   0  0  0  0  0  0  0  0  0  0  0  0
   18.6080   13.2930    3.3180 C   0  0  0  0  0  0  0  0  0  0  0  0
   19.3930   17.6980    3.9220 C   0  0  2  0  0  0  0  0  0  0  0  0
   19.4380   17.1000    2.5170 C   0  0  0  0  0  0  0  0  0  0  0  0
   21.6550   18.2740    3.4900 O   0  0  0  0  0  1  0  0  0  0  0  0
   20.7430   18.2750    4.3560 C   0  0  0  0  0  0  0  0  0  0  0  0
   20.7890   18.6280    5.5670 O   0  0  0  0  0  0  0  0  0  0  0  0
   19.5084   16.8962    5.8872 H   0  0  0  0  0  0  0  0  0  0  0  0
   14.9252   16.4749    5.8180 H   0  0  0  0  0  0  0  0  0  0  0  0
   14.9964   17.3812    4.2688 H   0  0  0  0  0  0  0  0  0  0  0  0
   14.5798   15.6339    4.2688 H   0  0  0  0  0  0  0  0  0  0  0  0
   18.8161   12.5459    4.0981 H   0  0  0  0  0  0  0  0  0  0  0  0
   17.7721   12.9468    2.6924 H   0  0  0  0  0  0  0  0  0  0  0  0
   19.5025   13.4288    2.6924 H   0  0  0  0  0  0  0  0  0  0  0  0
   18.6571   18.5136    3.8649 H   0  0  0  0  0  0  0  0  0  0  0  0
   19.5204   16.0053    2.5869 H   0  0  0  0  0  0  0  0  0  0  0  0
   18.5174   17.3646    1.9762 H   0  0  0  0  0  0  0  0  0  0  0  0
   20.3086   17.4994    1.9762 H   0  0  0  0  0  0  0  0  0  0  0  0
  2  1  1  0
  3  2  2  0
  4  2  1  0
  5  4  1  0
  6  4  1  0
  7  6  2  0
  8  6  1  0
  9  8  1  0
  9  1  1  0
 10  9  2  0
 11  8  1  0
 12  1  1  0
 13 12  1  0
 15 14  1  0
 15 12  1  0
 16 15  2  0
  1 17  1  0
  5 18  1  0
  5 19  1  0
  5 20  1  0
 11 21  1  0
 11 22  1  0
 11 23  1  0
 12 24  1  6
 13 25  1  0
 13 26  1  0
 13 27  1  0
M  CHG  1  14  -1
M  END
$$$$
=
     RDKit          3D

 24 25  0  0  0  0  0  0  0  0999 V2000
   19.2610   15.6090    4.4820 C   0  0  0  0  0  0  0  0  0  0  0  0
   18.7020   14.5430    3.8030 C   0  0  0  0  0  0  0  0  0  0  0  0
   17.2910   14.6310    3.9110 C   0  0  0  0  0  0  0  0  0  0  0  0
   17.0050   15.7710    4.6630 C   0  0  0  0  0  0  0  0  0  0  0  0
   18.2190   16.3490    5.0030 N   0  0  0  0  0  0  0  0  0  0  0  0
   18.3580   17.5640    5.7790 C   0  0  0  0  0  0  0  0  0  0  0  0
   15.6820   16.1580    4.9420 C   0  0  0  0  0  0  0  0  0  0  0  0
   14.6430   15.3600    4.4530 C   0  0  0  0  0  0  0  0  0  0  0  0
   14.9090   14.2160    3.7070 C   0  0  0  0  0  0  0  0  0  0  0  0
   16.2280   13.8420    3.4280 C   0  0  0  0  0  0  0  0  0  0  0  0
   20.7190   15.9480    4.6600 C   0  0  0  0  0  0  0  0  0  0  0  0
   22.0690   16.5240    6.5290 O   0  0  0  0  0  1  0  0  0  0  0  0
   21.2310   15.6800    6.0900 C   0  0  0  0  0  0  0  0  0  0  0  0
   20.7180   14.6860    6.6790 O   0  0  0  0  0  0  0  0  0  0  0  0
   19.2580   13.7585    3.2688 H   0  0  0  0  0  0  0  0  0  0  0  0
   18.3300   17.3195    6.8511 H   0  0  0  0  0  0  0  0  0  0  0  0
   19.3171   18.0455    5.5376 H   0  0  0  0  0  0  0  0  0  0  0  0
   17.5324   18.2497    5.5376 H   0  0  0  0  0  0  0  0  0  0  0  0
   15.4703   17.0639    5.5290 H   0  0  0  0  0  0  0  0  0  0  0  0
   13.6000   15.6408    4.6612 H   0  0  0  0  0  0  0  0  0  0  0  0
   14.0765   13.6014    3.3340 H   0  0  0  0  0  0  0  0  0  0  0  0
   16.4338   12.9382    2.8357 H   0  0  0  0  0  0  0  0  0  0  0  0
   21.3082   15.3405    3.9573 H   0  0  0  0  0  0  0  0  0  0  0  0
   20.8318   17.0251    4.4671 H   0  0  0  0  0  0  0  0  0  0  0  0
  2  1  2  0
  3  2  1  0
  4  3  2  0
  5  4  1  0
  5  1  1  0
  6  5  1  0
  7  4  1  0
  8  7  2  0
  9  8  1  0
 10  9  2  0
 10  3  1  0
 11  1  1  0
 13 11  1  0
 13 12  1  0
 14 13  2  0
  2 15  1  0
  6 16  1  0
  6 17  1  0
  6 18  1  0
  7 19  1  0
  8 20  1  0
  9 21  1  0
 10 22  1  0
 11 23  1  0
 11 24  1  0
M  CHG  1  12  -1
M  END
$$$$
=
     RDKit          3D

 26 28  0  0  0  0  0  0  0  0999 V2000
   14.6240   14.5070    3.8330 C   0  0  0  0  0  0  0  0  0  0  0  0
   14.3240   13.1780    3.3630 C   0  0  0  0  0  0  0  0  0  0  0  0
   15.2950   12.2330    2.9550 C   0  0  0  0  0  0  0  0  0  0  0  0
   16.6140   12.7040    3.0390 C   0  0  0  0  0  0  0  0  0  0  0  0
   16.8980   14.0400    3.5100 C   0  0  0  0  0  0  0  0  0  0  0  0
   15.9580   14.9810    3.9320 C   0  0  0  0  0  0  0  0  0  0  0  0
   18.2640   14.2070    3.4750 C   0  0  0  0  0  0  0  0  0  0  0  0
   18.7170   13.0030    2.9950 N   0  0  0  0  0  0  0  0  0  0  0  0
   17.7690   12.0860    2.7350 N   0  0  0  0  0  0  0  0  0  0  0  0
   19.1580   15.3190    3.7820 C   0  0  0  0  0  0  0  0  0  0  0  0
   19.1320   16.5010    3.0410 C   0  0  0  0  0  0  0  0  0  0  0  0
   20.0110   17.5360    3.3500 C   0  0  0  0  0  0  0  0  0  0  0  0
   20.9030   17.3530    4.3930 C   0  0  0  0  0  0  0  0  0  0  0  0
   20.9730   16.2260    5.1330 N   0  0  0  0  0  0  0  0  0  0  0  0
   20.0890   15.2460    4.8180 C   0  0  0  0  0  0  0  0  0  0  0  0
   12.3570   14.8950    4.4800 O   0  0  0  0  0  1  0  0  0  0  0  0
   13.4810   15.4330    4.2320 C   0  0  0  0  0  0  0  0  0  0  0  0
   13.7370   16.6780    4.2810 O   0  0  0  0  0  0  0  0  0  0  0  0
   13.2668   12.8774    3.3183 H   0  0  0  0  0  0  0  0  0  0  0  0
   15.0393   11.2222    2.6043 H   0  0  0  0  0  0  0  0  0  0  0  0
   16.2226   15.9827    4.3017 H   0  0  0  0  0  0  0  0  0  0  0  0
   19.7183   12.8146    2.8439 H   0  0  0  0  0  0  0  0  0  0  0  0
   18.4172   16.6153    2.2128 H   0  0  0  0  0  0  0  0  0  0  0  0
   19.9970   18.4762    2.7792 H   0  0  0  0  0  0  0  0  0  0  0  0
   21.5950   18.1738    4.6327 H   0  0  0  0  0  0  0  0  0  0  0  0
   20.1080   14.3277    5.4233 H   0  0  0  0  0  0  0  0  0  0  0  0
  2  1  1  0
  3  2  2  0
  4  3  1  0
  5  4  1  0
  6  1  2  0
  6  5  1  0
  7  5  2  0
  8  7  1  0
  9  8  1  0
  9  4  2  0
 10  7  1  0
 11 10  2  0
 12 11  1  0
 13 12  2  0
 14 13  1  0
 15 14  2  0
 15 10  1  0
 17 16  1  0
 17  1  1  0
 18 17  2  0
  2 19  1  0
  3 20  1  0
  6 21  1  0
  8 22  1  0
 11 23  1  0
 12 24  1  0
 13 25  1  0
 15 26  1  0
M  CHG  1  16  -1
M  END
$$$$
=
     RDKit          3D

 13 12  0  0  0  0  0  0  0  0999 V2000
   18.1460   15.6830    5.6210 C   0  0  0  0  0  0  0  0  0  0  0  0
   18.7080   15.0580    6.6970 F   0  0  0  0  0  0  0  0  0  0  0  0
   17.7840   14.6870    4.7580 F   0  0  0  0  0  0  0  0  0  0  0  0
   16.8950   16.4060    6.0790 C   0  0  0  0  0  0  0  0  0  0  0  0
   16.2430   15.6910    7.0410 F   0  0  0  0  0  0  0  0  0  0  0  0
   17.1430   17.6210    6.6280 F   0  0  0  0  0  0  0  0  0  0  0  0
   15.9900   16.6000    5.0880 F   0  0  0  0  0  0  0  0  0  0  0  0
   19.0650   16.6890    4.9920 C   0  0  0  0  0  0  0  0  0  0  0  0
   19.7690   17.3860    5.9310 F   0  0  0  0  0  0  0  0  0  0  0  0
   18.3740   17.6220    4.2720 F   0  0  0  0  0  0  0  0  0  0  0  0
   20.9950   15.3330    4.6520 O   0  0  0  0  0  1  0  0  0  0  0  0
   20.0090   15.8960    4.0850 C   0  0  0  0  0  0  0  0  0  0  0  0
   19.7170   15.8710    2.8500 O   0  0  0  0  0  0  0  0  0  0  0  0
  2  1  1  0
  3  1  1  0
  4  1  1  0
  5  4  1  0
  6  4  1  0
  7  4  1  0
  8  1  1  0
  9  8  1  0
 10  8  1  0
 12 11  1  0
 12  8  1  0
 13 12  2  0
M  CHG  1  11  -1
M  END
$$$$
=
     RDKit          3D

 44 46  0  0  0  0  0  0  0  0999 V2000
   26.2250   24.8900   13.1160 C   0  0  2  0  0  0  0  0  0  0  0  0
   27.1150   24.0870   14.1920 C   0  0  0  0  0  0  0  0  0  0  0  0
   27.2430   22.9270   14.5100 O   0  0  0  0  0  0  0  0  0  0  0  0
   27.7500   25.2410   14.4960 N   0  0  0  0  0  0  0  0  0  0  0  0
   26.7850   26.1450   13.9060 C   0  0  1  0  0  0  0  0  0  0  0  0
   27.6540   27.4190   12.9390 S   0  0  0  0  0  0  0  0  0  0  0  0
   28.5880   28.0130   14.3860 C   0  0  0  0  0  0  0  0  0  0  0  0
   29.2670   26.9170   15.1760 C   0  0  0  0  0  0  0  0  0  0  0  0
   28.8540   25.6270   15.1930 C   0  0  0  0  0  0  0  0  0  0  0  0
   24.7560   24.6550   13.2140 N   0  0  0  0  0  0  0  0  0  0  0  0
   23.7810   25.5190   12.7790 C   0  0  0  0  0  0  0  0  0  0  0  0
   24.0020   26.5110   12.0930 O   0  0  0  0  0  0  0  0  0  0  0  0
   22.3750   25.1340   13.2010 C   0  0  0  0  0  0  0  0  0  0  0  0
   21.6380   24.5580   12.0310 C   0  0  0  0  0  0  0  0  0  0  0  0
   21.5770   23.2380   11.6260 C   0  0  0  0  0  0  0  0  0  0  0  0
   20.7690   23.0640   10.4660 C   0  0  0  0  0  0  0  0  0  0  0  0
   20.2450   24.2550   10.0200 C   0  0  0  0  0  0  0  0  0  0  0  0
   20.7260   25.5740   10.9960 S   0  0  0  0  0  0  0  0  0  0  0  0
   29.7180   24.5670   15.9440 C   0  0  0  0  0  0  0  0  0  0  0  0
   30.5920   23.9950   15.2320 O   0  0  0  0  0  0  0  0  0  0  0  0
   29.3590   24.3560   17.1390 O   0  0  0  0  0  1  0  0  0  0  0  0
   26.4100   23.4420   11.1140 C   0  0  0  0  0  0  0  0  0  0  0  0
   26.6150   24.7160   11.7130 O   0  0  0  0  0  0  0  0  0  0  0  0
   30.4910   27.3960   15.9280 C   0  0  0  0  0  0  0  0  0  0  0  0
   30.0470   28.3540   16.8990 O   0  0  0  0  0  0  0  0  0  0  0  0
   29.4520   27.8200   17.9830 C   0  0  0  0  0  0  0  0  0  0  0  0
   28.3290   28.0480   18.4020 O   0  0  0  0  0  0  0  0  0  0  0  0
   30.3110   26.9680   18.5920 N   0  0  0  0  0  0  0  0  0  0  0  0
   26.0808   26.7829   14.4602 H   0  0  0  0  0  0  0  0  0  0  0  0
   29.3594   28.7142   14.0349 H   0  0  0  0  0  0  0  0  0  0  0  0
   27.8594   28.4854   15.0612 H   0  0  0  0  0  0  0  0  0  0  0  0
   24.4467   23.7714   13.6436 H   0  0  0  0  0  0  0  0  0  0  0  0
   22.4265   24.3856   14.0055 H   0  0  0  0  0  0  0  0  0  0  0  0
   21.8449   26.0276   13.5621 H   0  0  0  0  0  0  0  0  0  0  0  0
   22.0939   22.4150   12.1412 H   0  0  0  0  0  0  0  0  0  0  0  0
   20.5858   22.0924    9.9840 H   0  0  0  0  0  0  0  0  0  0  0  0
   19.5931   24.3480    9.1389 H   0  0  0  0  0  0  0  0  0  0  0  0
   26.2878   22.6825   11.9003 H   0  0  0  0  0  0  0  0  0  0  0  0
   25.5051   23.4719   10.4893 H   0  0  0  0  0  0  0  0  0  0  0  0
   27.2786   23.1865   10.4893 H   0  0  0  0  0  0  0  0  0  0  0  0
   30.9792   26.5485   16.4313 H   0  0  0  0  0  0  0  0  0  0  0  0
   31.2192   27.8487   15.2389 H   0  0  0  0  0  0  0  0  0  0  0  0
   30.0215   26.4661   19.4436 H   0  0  0  0  0  0  0  0  0  0  0  0
   31.2537   26.8220   18.2035 H   0  0  0  0  0  0  0  0  0  0  0  0
  2  1  1  0
  3  2  2  0
  4  2  1  0
  5  1  1  0
  5  4  1  0
  6  5  1  0
  7  6  1  0
  8  7  1  0
  9  8  2  0
  9  4  1  0
 10  1  1  0
 11 10  1  0
 12 11  2  0
 13 11  1  0
 14 13  1  0
 15 14  2  0
 16 15  1  0
 17 16  2  0
 18 17  1  0
 18 14  1  0
 19  9  1  0
 20 19  2  0
 21 19  1  0
 23 22  1  0
  1 23  1  6
 24  8  1  0
 25 24  1  0
 26 25  1  0
 27 26  2  0
 28 26  1  0
  5 29  1  1
  7 30  1  0
  7 31  1  0
 10 32  1  0
 13 33  1  0
 13 34  1  0
 15 35  1  0
 16 36  1  0
 17 37  1  0
 22 38  1  0
 22 39  1  0
 22 40  1  0
 24 41  1  0
 24 42  1  0
 28 43  1  0
 28 44  1  0
M  CHG  1  21  -1
M  END
$$$$
=
     RDKit          3D

 17 17  0  0  0  0  0  0  0  0999 V2000
   15.5970   12.5440    2.3990 F   0  0  0  0  0  0  0  0  0  0  0  0
   15.5930   13.5790    3.2520 C   0  0  0  0  0  0  0  0  0  0  0  0
   14.4060   13.9340    3.8840 C   0  0  0  0  0  0  0  0  0  0  0  0
   14.3930   15.0080    4.7710 C   0  0  0  0  0  0  0  0  0  0  0  0
   15.5720   15.7150    5.0210 C   0  0  0  0  0  0  0  0  0  0  0  0
   16.7740   15.3550    4.3890 C   0  0  0  0  0  0  0  0  0  0  0  0
   16.7710   14.2780    3.4910 C   0  0  0  0  0  0  0  0  0  0  0  0
   18.0470   16.1290    4.6660 C   0  0  0  0  0  0  0  0  0  0  0  0
   18.3300   17.0240    3.6620 F   0  0  0  0  0  0  0  0  0  0  0  0
   17.9510   16.9050    5.7970 F   0  0  0  0  0  0  0  0  0  0  0  0
   19.2580   15.1330    4.8230 C   0  0  0  0  0  0  0  0  0  0  0  0
   19.3530   14.5290    5.9400 O   0  0  0  0  0  0  0  0  0  0  0  0
   20.0520   15.0440    3.8310 O   0  0  0  0  0  1  0  0  0  0  0  0
   13.4829   13.3700    3.6846 H   0  0  0  0  0  0  0  0  0  0  0  0
   13.4581   15.2984    5.2727 H   0  0  0  0  0  0  0  0  0  0  0  0
   15.5589   16.5635    5.7209 H   0  0  0  0  0  0  0  0  0  0  0  0
   17.6987   13.9867    2.9767 H   0  0  0  0  0  0  0  0  0  0  0  0
  2  1  1  0
  3  2  2  0
  4  3  1  0
  5  4  2  0
  6  5  1  0
  7  2  1  0
  7  6  2  0
  8  6  1  0
  9  8  1  0
 10  8  1  0
 11  8  1  0
 12 11  2  0
 13 11  1  0
  3 14  1  0
  4 15  1  0
  5 16  1  0
  7 17  1  0
M  CHG  1  13  -1
M  END
$$$$
=
     RDKit          3D

 20 21  0  0  0  0  0  0  0  0999 V2000
   19.4720   15.5010    5.4600 C   0  0  0  0  0  0  0  0  0  0  0  0
   18.4490   15.8300    6.2110 N   0  0  0  0  0  0  0  0  0  0  0  0
   17.2520   15.8500    5.3520 C   0  0  1  0  0  0  0  0  0  0  0  0
   17.4030   14.7830    4.2820 C   0  0  2  0  0  0  0  0  0  0  0  0
   19.1050   15.0490    3.7770 S   0  0  0  0  0  0  0  0  0  0  0  0
   16.2890   14.9400    3.2610 C   0  0  0  0  0  0  0  0  0  0  0  0
   15.0610   15.4040    3.8600 O   0  0  0  0  0  0  0  0  0  0  0  0
   14.8990   14.9830    5.2200 C   0  0  0  0  0  0  0  0  0  0  0  0
   15.9720   15.5890    6.1340 C   0  0  0  0  0  0  0  0  0  0  0  0
   21.0530   15.4040    7.2710 O   0  0  0  0  0  1  0  0  0  0  0  0
   20.9110   15.4460    6.0070 C   0  0  0  0  0  0  0  0  0  0  0  0
   21.8470   15.4400    5.1430 O   0  0  0  0  0  0  0  0  0  0  0  0
   17.1716   16.8535    4.9088 H   0  0  0  0  0  0  0  0  0  0  0  0
   17.2751   13.7258    4.5576 H   0  0  0  0  0  0  0  0  0  0  0  0
   16.6074   15.6660    2.4984 H   0  0  0  0  0  0  0  0  0  0  0  0
   16.0959   13.9519    2.8178 H   0  0  0  0  0  0  0  0  0  0  0  0
   13.9075   15.3001    5.5755 H   0  0  0  0  0  0  0  0  0  0  0  0
   14.9987   13.8880    5.2539 H   0  0  0  0  0  0  0  0  0  0  0  0
   15.6009   16.5380    6.5484 H   0  0  0  0  0  0  0  0  0  0  0  0
   16.1894   14.8801    6.9466 H   0  0  0  0  0  0  0  0  0  0  0  0
  2  1  2  0
  3  2  1  0
  4  3  1  0
  5  4  1  0
  5  1  1  0
  6  4  1  0
  7  6  1  0
  8  7  1  0
  9  8  1  0
  9  3  1  0
 11 10  1  0
 11  1  1  0
 12 11  2  0
  3 13  1  6
  4 14  1  1
  6 15  1  0
  6 16  1  0
  8 17  1  0
  8 18  1  0
  9 19  1  0
  9 20  1  0
M  CHG  1  10  -1
M  END
$$$$
=
     RDKit          3D

 32 32  0  0  0  0  0  0  0  0999 V2000
   18.9060   16.9940    4.6910 C   0  0  0  0  0  0  0  0  0  0  0  0
   18.0970   17.3850    5.7640 C   0  0  0  0  0  0  0  0  0  0  0  0
   16.8700   16.7570    5.9940 C   0  0  0  0  0  0  0  0  0  0  0  0
   16.4250   15.7300    5.1510 C   0  0  0  0  0  0  0  0  0  0  0  0
   17.2400   15.3380    4.0810 C   0  0  0  0  0  0  0  0  0  0  0  0
   18.4670   15.9650    3.8520 C   0  0  0  0  0  0  0  0  0  0  0  0
   20.2350   17.6830    4.4420 C   0  0  0  0  0  0  0  0  0  0  0  0
   22.9550   18.3370    5.1210 Br  0  0  0  0  0  0  0  0  0  0  0  0
   21.2120   17.5580    5.6050 C   0  0  2  0  0  0  0  0  0  0  0  0
   21.4670   16.0900    5.9740 C   0  0  0  0  0  0  0  0  0  0  0  0
   21.8960   15.3690    5.0240 O   0  0  0  0  0  0  0  0  0  0  0  0
   21.2610   15.7660    7.1790 O   0  0  0  0  0  1  0  0  0  0  0  0
   15.0960   15.0580    5.3930 C   0  0  0  0  0  0  0  0  0  0  0  0
   14.3210   14.6060    4.1380 C   0  0  0  0  0  0  0  0  0  0  0  0
   14.6470   13.1720    3.7200 C   0  0  0  0  0  0  0  0  0  0  0  0
   12.8090   14.7920    4.2740 C   0  0  0  0  0  0  0  0  0  0  0  0
   18.4297   18.1933    6.4318 H   0  0  0  0  0  0  0  0  0  0  0  0
   16.2477   17.0718    6.8447 H   0  0  0  0  0  0  0  0  0  0  0  0
   16.9101   14.5278    3.4141 H   0  0  0  0  0  0  0  0  0  0  0  0
   19.0928   15.6469    3.0051 H   0  0  0  0  0  0  0  0  0  0  0  0
   20.6971   17.2359    3.5495 H   0  0  0  0  0  0  0  0  0  0  0  0
   20.0242   18.7546    4.3103 H   0  0  0  0  0  0  0  0  0  0  0  0
   20.7582   18.0879    6.4554 H   0  0  0  0  0  0  0  0  0  0  0  0
   15.2783   14.1680    6.0131 H   0  0  0  0  0  0  0  0  0  0  0  0
   14.4634   15.8213    5.8697 H   0  0  0  0  0  0  0  0  0  0  0  0
   14.6691   15.2734    3.3359 H   0  0  0  0  0  0  0  0  0  0  0  0
   14.7880   12.5516    4.6173 H   0  0  0  0  0  0  0  0  0  0  0  0
   13.8180   12.7672    3.1210 H   0  0  0  0  0  0  0  0  0  0  0  0
   15.5696   13.1654    3.1210 H   0  0  0  0  0  0  0  0  0  0  0  0
   12.5381   14.8253    5.3396 H   0  0  0  0  0  0  0  0  0  0  0  0
   12.5104   15.7336    3.7901 H   0  0  0  0  0  0  0  0  0  0  0  0
   12.2911   13.9508    3.7901 H   0  0  0  0  0  0  0  0  0  0  0  0
  2  1  2  0
  3  2  1  0
  4  3  2  0
  5  4  1  0
  6  5  2  0
  6  1  1  0
  7  1  1  0
  9  7  1  0
  9  8  1  0
 10  9  1  0
 11 10  2  0
 12 10  1  0
 13  4  1  0
 14 13  1  0
 15 14  1  0
 16 14  1  0
  2 17  1  0
  3 18  1  0
  5 19  1  0
  6 20  1  0
  7 21  1  0
  7 22  1  0
  9 23  1  1
 13 24  1  0
 13 25  1  0
 14 26  1  0
 15 27  1  0
 15 28  1  0
 15 29  1  0
 16 30  1  0
 16 31  1  0
 16 32  1  0
M  CHG  1  12  -1
M  END
$$$$
=
     RDKit          3D

 17 17  0  0  0  0  0  0  0  0999 V2000
   15.2900   15.0500    4.4040 C   0  0  0  0  0  0  0  0  0  0  0  0
   13.9660   14.6220    4.6000 C   0  0  0  0  0  0  0  0  0  0  0  0
   13.4850   13.4980    3.9320 C   0  0  0  0  0  0  0  0  0  0  0  0
   12.2200   13.1020    4.1260 F   0  0  0  0  0  0  0  0  0  0  0  0
   14.2920   12.7820    3.0580 C   0  0  0  0  0  0  0  0  0  0  0  0
   15.5980   13.2090    2.8550 C   0  0  0  0  0  0  0  0  0  0  0  0
   16.0960   14.3320    3.5160 C   0  0  0  0  0  0  0  0  0  0  0  0
   17.3540   14.7260    3.2660 F   0  0  0  0  0  0  0  0  0  0  0  0
   16.3760   12.5330    1.9960 F   0  0  0  0  0  0  0  0  0  0  0  0
   15.8160   16.2710    5.1190 C   0  0  0  0  0  0  0  0  0  0  0  0
   16.2360   15.3230    7.2390 O   0  0  0  0  0  1  0  0  0  0  0  0
   16.7760   15.8950    6.2460 C   0  0  0  0  0  0  0  0  0  0  0  0
   17.9870   16.2040    6.0610 O   0  0  0  0  0  0  0  0  0  0  0  0
   13.3066   15.1767    5.2837 H   0  0  0  0  0  0  0  0  0  0  0  0
   13.9047   11.8942    2.5367 H   0  0  0  0  0  0  0  0  0  0  0  0
   16.3471   16.9068    4.3954 H   0  0  0  0  0  0  0  0  0  0  0  0
   14.9615   16.8053    5.5599 H   0  0  0  0  0  0  0  0  0  0  0  0
  2  1  2  0
  3  2  1  0
  4  3  1  0
  5  3  2  0
  6  5  1  0
  7  6  2  0
  7  1  1  0
  8  7  1  0
  9  6  1  0
 10  1  1  0
 12 10  1  0
 12 11  1  0
 13 12  2  0
  2 14  1  0
  5 15  1  0
 10 16  1  0
 10 17  1  0
M  CHG  1  11  -1
M  END
$$$$
=
     RDKit          3D

 46 48  0  0  0  0  0  0  0  0999 V2000
   19.4730   15.1170    3.9900 C   0  0  1  0  0  0  0  0  0  0  0  0
   19.5580   14.2540    5.2520 C   0  0  0  0  0  0  0  0  0  0  0  0
   18.9400   14.9260    6.4820 C   0  0  0  0  0  0  0  0  0  0  0  0
   17.7580   15.8410    6.1750 C   0  0  0  0  0  0  0  0  0  0  0  0
   17.1000   15.4130    4.9020 N   0  0  2  0  0  4  0  0  0  0  0  0
   18.0210   15.5480    3.6910 C   0  0  0  0  0  0  0  0  0  0  0  0
   22.8720   18.2680    5.7290 C   0  0  0  0  0  0  0  0  0  0  0  0
   21.8390   17.7220    4.8200 C   0  0  0  0  0  0  0  0  0  0  0  0
   21.3360   18.2580    3.6580 C   0  0  0  0  0  0  0  0  0  0  0  0
   20.4070   17.3620    3.2120 N   0  0  0  0  0  0  0  0  0  0  0  0
   20.3670   16.3190    4.1100 C   0  0  0  0  0  0  0  0  0  0  0  0
   21.2320   16.5180    5.0860 N   0  0  0  0  0  0  0  0  0  0  0  0
   19.6210   17.5070    2.0100 C   0  0  0  0  0  0  0  0  0  0  0  0
   15.7730   16.1170    4.6820 C   0  0  0  0  0  0  0  0  0  0  0  0
   14.6840   15.1370    4.3670 C   0  0  0  0  0  0  0  0  0  0  0  0
   14.9890   13.9330    3.7160 C   0  0  0  0  0  0  0  0  0  0  0  0
   13.9650   13.1010    3.2680 C   0  0  0  0  0  0  0  0  0  0  0  0
   12.6210   13.4480    3.4610 C   0  0  0  0  0  0  0  0  0  0  0  0
   12.3250   14.6280    4.1610 C   0  0  0  0  0  0  0  0  0  0  0  0
   13.3440   15.4650    4.6120 C   0  0  0  0  0  0  0  0  0  0  0  0
   11.5100   12.5790    2.9060 C   0  0  0  0  0  0  0  0  0  0  0  0
   10.3240   13.0000    3.0670 O   0  0  0  0  0  0  0  0  0  0  0  0
   11.8610   11.4930    2.3500 O   0  0  0  0  0  1  0  0  0  0  0  0
   19.8182   14.5037    3.1447 H   0  0  0  0  0  0  0  0  0  0  0  0
   19.0275   13.3085    5.0660 H   0  0  0  0  0  0  0  0  0  0  0  0
   20.6245   14.0922    5.4676 H   0  0  0  0  0  0  0  0  0  0  0  0
   18.5956   14.1378    7.1677 H   0  0  0  0  0  0  0  0  0  0  0  0
   19.7239   15.5625    6.9183 H   0  0  0  0  0  0  0  0  0  0  0  0
   17.0305   15.7856    6.9982 H   0  0  0  0  0  0  0  0  0  0  0  0
   18.1188   16.8745    6.0665 H   0  0  0  0  0  0  0  0  0  0  0  0
   16.8976   14.4084    5.0057 H   0  0  0  0  0  0  0  0  0  0  0  0
   17.6280   14.9184    2.8791 H   0  0  0  0  0  0  0  0  0  0  0  0
   18.0433   16.6113    3.4099 H   0  0  0  0  0  0  0  0  0  0  0  0
   22.5649   18.1057    6.7727 H   0  0  0  0  0  0  0  0  0  0  0  0
   23.8291   17.7580    5.5449 H   0  0  0  0  0  0  0  0  0  0  0  0
   22.9897   19.3461    5.5449 H   0  0  0  0  0  0  0  0  0  0  0  0
   21.6221   19.2096    3.1863 H   0  0  0  0  0  0  0  0  0  0  0  0
   18.5721   17.7005    2.2789 H   0  0  0  0  0  0  0  0  0  0  0  0
   20.0089   18.3487    1.4175 H   0  0  0  0  0  0  0  0  0  0  0  0
   19.6830   16.5823    1.4175 H   0  0  0  0  0  0  0  0  0  0  0  0
   15.5049   16.6700    5.5943 H   0  0  0  0  0  0  0  0  0  0  0  0
   15.8806   16.8034    3.8292 H   0  0  0  0  0  0  0  0  0  0  0  0
   16.0388   13.6448    3.5587 H   0  0  0  0  0  0  0  0  0  0  0  0
   14.2147   12.1598    2.7563 H   0  0  0  0  0  0  0  0  0  0  0  0
   11.2760   14.8954    4.3560 H   0  0  0  0  0  0  0  0  0  0  0  0
   13.0958   16.3850    5.1615 H   0  0  0  0  0  0  0  0  0  0  0  0
  2  1  1  0
  3  2  1  0
  4  3  1  0
  5  4  1  0
  6  5  1  0
  6  1  1  0
  8  7  1  0
  9  8  2  0
 10  9  1  0
 11  1  1  0
 11 10  1  0
 12 11  2  0
 12  8  1  0
 13 10  1  0
 14  5  1  0
 15 14  1  0
 16 15  2  0
 17 16  1  0
 18 17  2  0
 19 18  1  0
 20 19  2  0
 20 15  1  0
 21 18  1  0
 22 21  2  0
 23 21  1  0
  1 24  1  6
  2 25  1  0
  2 26  1  0
  3 27  1  0
  3 28  1  0
  4 29  1  0
  4 30  1  0
  5 31  1  1
  6 32  1  0
  6 33  1  0
  7 34  1  0
  7 35  1  0
  7 36  1  0
  9 37  1  0
 13 38  1  0
 13 39  1  0
 13 40  1  0
 14 41  1  0
 14 42  1  0
 16 43  1  0
 17 44  1  0
 19 45  1  0
 20 46  1  0
M  CHG  2   5   1  23  -1
M  END
$$$$
=
     RDKit          3D

 30 31  0  0  0  0  0  0  0  0999 V2000
   20.8920   16.0020    5.2620 C   0  0  0  0  0  0  0  0  0  0  0  0
   20.6450   15.0960    6.2540 O   0  0  0  0  0  0  0  0  0  0  0  0
   19.3590   14.6950    6.1120 C   0  0  0  0  0  0  0  0  0  0  0  0
   18.7500   15.3200    5.0410 C   0  0  0  0  0  0  0  0  0  0  0  0
   19.7580   16.1660    4.4860 C   0  0  0  0  0  0  0  0  0  0  0  0
   17.3500   15.1080    4.7070 C   0  0  0  0  0  0  0  0  0  0  0  0
   17.0000   14.3230    3.5980 C   0  0  0  0  0  0  0  0  0  0  0  0
   15.6600   14.1270    3.2540 C   0  0  0  0  0  0  0  0  0  0  0  0
   14.6620   14.7240    4.0150 C   0  0  0  0  0  0  0  0  0  0  0  0
   14.9790   15.5110    5.1120 C   0  0  0  0  0  0  0  0  0  0  0  0
   16.3170   15.6980    5.4510 C   0  0  0  0  0  0  0  0  0  0  0  0
   16.5870   16.4740    6.5130 F   0  0  0  0  0  0  0  0  0  0  0  0
   13.3780   14.5420    3.6830 F   0  0  0  0  0  0  0  0  0  0  0  0
   19.6480   17.1030    3.2310 C   0  0  0  0  0  0  0  0  0  0  0  0
   19.7350   16.5550    2.0910 O   0  0  0  0  0  0  0  0  0  0  0  0
   19.4730   18.3390    3.4530 O   0  0  0  0  0  1  0  0  0  0  0  0
   22.2680   16.5620    5.2300 C   0  0  0  0  0  0  0  0  0  0  0  0
   22.6940   19.0000    4.6070 C   0  0  0  0  0  0  0  0  0  0  0  0
   22.3280   18.0150    5.7080 C   0  0  0  0  0  0  0  0  0  0  0  0
   18.8622   13.9639    6.7668 H   0  0  0  0  0  0  0  0  0  0  0  0
   17.7903   13.8561    2.9919 H   0  0  0  0  0  0  0  0  0  0  0  0
   15.3967   13.5042    2.3864 H   0  0  0  0  0  0  0  0  0  0  0  0
   14.1831   15.9821    5.7075 H   0  0  0  0  0  0  0  0  0  0  0  0
   22.9113   15.9511    5.8804 H   0  0  0  0  0  0  0  0  0  0  0  0
   22.6093   16.5428    4.1845 H   0  0  0  0  0  0  0  0  0  0  0  0
   23.0435   19.9406    5.0578 H   0  0  0  0  0  0  0  0  0  0  0  0
   23.4934   18.5728    3.9837 H   0  0  0  0  0  0  0  0  0  0  0  0
   21.8096   19.1985    3.9837 H   0  0  0  0  0  0  0  0  0  0  0  0
   23.0815   18.0885    6.5060 H   0  0  0  0  0  0  0  0  0  0  0  0
   21.3209   18.2822    6.0605 H   0  0  0  0  0  0  0  0  0  0  0  0
  2  1  1  0
  3  2  1  0
  4  3  2  0
  5  4  1  0
  5  1  2  0
  6  4  1  0
  7  6  2  0
  8  7  1  0
  9  8  2  0
 10  9  1  0
 11 10  2  0
 11  6  1  0
 12 11  1  0
 13  9  1  0
 14  5  1  0
 15 14  2  0
 16 14  1  0
 17  1  1  0
 19 18  1  0
 19 17  1  0
  3 20  1  0
  7 21  1  0
  8 22  1  0
 10 23  1  0
 17 24  1  0
 17 25  1  0
 18 26  1  0
 18 27  1  0
 18 28  1  0
 19 29  1  0
 19 30  1  0
M  CHG  1  16  -1
M  END
$$$$
=
     RDKit          3D

 31 31  0  0  0  0  0  0  0  0999 V2000
   17.1440   14.9250    3.8760 C   0  0  2  0  0  0  0  0  0  0  0  0
   16.0430   14.9550    2.8140 C   0  0  0  0  0  0  0  0  0  0  0  0
   15.7640   14.3420    4.1590 C   0  0  2  0  0  0  0  0  0  0  0  0
   18.2130   15.5500    6.4890 O   0  0  0  0  0  0  0  0  0  0  0  0
   18.2750   16.3320    5.5530 C   0  0  0  0  0  0  0  0  0  0  0  0
   17.5940   16.2220    4.3710 N   0  0  0  0  0  0  0  0  0  0  0  0
   19.0240   17.4630    5.5190 O   0  0  0  0  0  0  0  0  0  0  0  0
   20.3890   17.4250    5.0350 C   0  0  0  0  0  0  0  0  0  0  0  0
   21.0870   16.1210    5.4300 C   0  0  0  0  0  0  0  0  0  0  0  0
   20.4540   17.6770    3.5240 C   0  0  0  0  0  0  0  0  0  0  0  0
   21.0870   18.5910    5.7540 C   0  0  0  0  0  0  0  0  0  0  0  0
   14.7600   14.9270    5.0650 C   0  0  0  0  0  0  0  0  0  0  0  0
   14.4370   16.1760    4.6280 F   0  0  0  0  0  0  0  0  0  0  0  0
   15.1940   15.0750    6.3400 F   0  0  0  0  0  0  0  0  0  0  0  0
   13.6070   14.2200    5.0840 F   0  0  0  0  0  0  0  0  0  0  0  0
   18.2770   13.9740    3.5810 C   0  0  0  0  0  0  0  0  0  0  0  0
   18.0950   12.7260    3.7480 O   0  0  0  0  0  0  0  0  0  0  0  0
   19.3540   14.5090    3.1570 O   0  0  0  0  0  1  0  0  0  0  0  0
   15.5725   15.9101    2.5376 H   0  0  0  0  0  0  0  0  0  0  0  0
   15.9601   14.6113    1.7724 H   0  0  0  0  0  0  0  0  0  0  0  0
   15.4278   13.3668    4.5410 H   0  0  0  0  0  0  0  0  0  0  0  0
   17.3955   17.0699    3.8209 H   0  0  0  0  0  0  0  0  0  0  0  0
   21.1279   16.0446    6.5266 H   0  0  0  0  0  0  0  0  0  0  0  0
   20.5255   15.2669    5.0236 H   0  0  0  0  0  0  0  0  0  0  0  0
   22.1092   16.1146    5.0236 H   0  0  0  0  0  0  0  0  0  0  0  0
   20.7248   18.7269    3.3387 H   0  0  0  0  0  0  0  0  0  0  0  0
   21.2116   17.0181    3.0746 H   0  0  0  0  0  0  0  0  0  0  0  0
   19.4722   17.4668    3.0746 H   0  0  0  0  0  0  0  0  0  0  0  0
   21.0044   18.4529    6.8422 H   0  0  0  0  0  0  0  0  0  0  0  0
   22.1486   18.6158    5.4671 H   0  0  0  0  0  0  0  0  0  0  0  0
   20.6074   19.5385    5.4671 H   0  0  0  0  0  0  0  0  0  0  0  0
  2  1  1  0
  3  2  1  0
  3  1  1  0
  5  4  2  0
  6  1  1  0
  6  5  1  0
  7  5  1  0
  8  7  1  0
  9  8  1  0
 10  8  1  0
 11  8  1  0
 12  3  1  0
 13 12  1  0
 14 12  1  0
 15 12  1  0
  1 16  1  6
 17 16  2  0
 18 16  1  0
  2 19  1  0
  2 20  1  0
  3 21  1  6
  6 22  1  0
  9 23  1  0
  9 24  1  0
  9 25  1  0
 10 26  1  0
 10 27  1  0
 10 28  1  0
 11 29  1  0
 11 30  1  0
 11 31  1  0
M  CHG  1  18  -1
M  END
$$$$
=
     RDKit          3D

 38 39  0  0  0  0  0  0  0  0999 V2000
   13.7930   14.4810    4.9770 C   0  0  0  0  0  0  0  0  0  0  0  0
   12.9440   13.6830    4.0860 N   0  0  0  0  0  0  0  0  0  0  0  0
   13.4760   12.7240    3.2240 C   0  0  0  0  0  0  0  0  0  0  0  0
   15.0910   12.2850    3.0660 S   0  0  0  0  0  0  0  0  0  0  0  0
   12.5790   12.0720    2.4190 N   0  0  0  0  0  0  0  0  0  0  0  0
   11.2350   12.3010    2.4380 C   0  0  0  0  0  0  0  0  0  0  0  0
   10.7070   13.2300    3.2340 C   0  0  0  0  0  0  0  0  0  0  0  0
   11.5830   14.0470    4.0820 C   0  0  0  0  0  0  0  0  0  0  0  0
   11.1640   15.0230    4.7040 O   0  0  0  0  0  0  0  0  0  0  0  0
    9.2070   13.4010    3.2260 C   0  0  0  0  0  0  0  0  0  0  0  0
    8.8000   14.5290    2.8160 O   0  0  0  0  0  0  0  0  0  0  0  0
    8.5370   12.3710    3.5220 O   0  0  0  0  0  1  0  0  0  0  0  0
   14.5200   15.6010    4.2210 C   0  0  0  0  0  0  0  0  0  0  0  0
   18.3340   15.7550    4.0410 C   0  0  0  0  0  0  0  0  0  0  0  0
   16.9860   15.6870    3.6650 C   0  0  0  0  0  0  0  0  0  0  0  0
   15.9700   15.6990    4.6310 C   0  0  0  0  0  0  0  0  0  0  0  0
   16.3140   15.7680    5.9840 C   0  0  0  0  0  0  0  0  0  0  0  0
   17.6550   15.8380    6.3690 C   0  0  0  0  0  0  0  0  0  0  0  0
   18.6720   15.8340    5.4080 C   0  0  0  0  0  0  0  0  0  0  0  0
   19.6180   16.9350    2.4100 C   0  0  0  0  0  0  0  0  0  0  0  0
   19.3860   15.7500    3.1560 O   0  0  0  0  0  0  0  0  0  0  0  0
   20.0130   15.8990    5.6960 O   0  0  0  0  0  0  0  0  0  0  0  0
   20.5440   14.9080    6.5640 C   0  0  0  0  0  0  0  0  0  0  0  0
   13.1641   14.9301    5.7598 H   0  0  0  0  0  0  0  0  0  0  0  0
   14.5520   13.8146    5.4127 H   0  0  0  0  0  0  0  0  0  0  0  0
   12.9414   11.3675    1.7608 H   0  0  0  0  0  0  0  0  0  0  0  0
   10.5760   11.7093    1.7857 H   0  0  0  0  0  0  0  0  0  0  0  0
   14.4675   15.3954    3.1417 H   0  0  0  0  0  0  0  0  0  0  0  0
   14.0288   16.5548    4.4640 H   0  0  0  0  0  0  0  0  0  0  0  0
   16.7217   15.6234    2.5991 H   0  0  0  0  0  0  0  0  0  0  0  0
   15.5244   15.7672    6.7498 H   0  0  0  0  0  0  0  0  0  0  0  0
   17.9136   15.8968    7.4366 H   0  0  0  0  0  0  0  0  0  0  0  0
   19.7827   17.7761    3.0996 H   0  0  0  0  0  0  0  0  0  0  0  0
   20.5070   16.8011    1.7761 H   0  0  0  0  0  0  0  0  0  0  0  0
   18.7442   17.1462    1.7761 H   0  0  0  0  0  0  0  0  0  0  0  0
   20.3817   15.2108    7.6090 H   0  0  0  0  0  0  0  0  0  0  0  0
   20.0391   13.9487    6.3776 H   0  0  0  0  0  0  0  0  0  0  0  0
   21.6224   14.7970    6.3776 H   0  0  0  0  0  0  0  0  0  0  0  0
  2  1  1  0
  3  2  1  0
  4  3  2  0
  5  3  1  0
  6  5  1  0
  7  6  2  0
  8  7  1  0
  8  2  1  0
  9  8  2  0
 10  7  1  0
 11 10  2  0
 12 10  1  0
 13  1  1  0
 15 14  2  0
 16 13  1  0
 16 15  1  0
 17 16  2  0
 18 17  1  0
 19 14  1  0
 19 18  2  0
 21 14  1  0
 21 20  1  0
 22 19  1  0
 23 22  1  0
  1 24  1  0
  1 25  1  0
  5 26  1  0
  6 27  1  0
 13 28  1  0
 13 29  1  0
 15 30  1  0
 17 31  1  0
 18 32  1  0
 20 33  1  0
 20 34  1  0
 20 35  1  0
 23 36  1  0
 23 37  1  0
 23 38  1  0
M  CHG  1  12  -1
M  END
$$$$
=
     RDKit          3D

 38 38  0  0  0  0  0  0  0  0999 V2000
   15.8450   15.8860    5.0660 S   0  0  0  0  0  6  0  0  0  0  0  0
   15.3300   17.2270    4.9060 O   0  0  0  0  0  0  0  0  0  0  0  0
   15.5000   15.0720    6.2150 O   0  0  0  0  0  0  0  0  0  0  0  0
   17.6230   15.9320    5.0080 C   0  0  0  0  0  0  0  0  0  0  0  0
   18.3500   15.2340    5.9750 C   0  0  0  0  0  0  0  0  0  0  0  0
   19.7410   15.2640    5.9380 C   0  0  0  0  0  0  0  0  0  0  0  0
   20.4060   15.9830    4.9360 C   0  0  0  0  0  0  0  0  0  0  0  0
   19.6950   16.7100    3.9680 C   0  0  0  0  0  0  0  0  0  0  0  0
   18.2830   16.6670    4.0150 C   0  0  0  0  0  0  0  0  0  0  0  0
   20.3630   17.5450    2.9020 C   0  0  0  0  0  0  0  0  0  0  0  0
   19.9940   17.3360    1.7020 O   0  0  0  0  0  0  0  0  0  0  0  0
   21.2670   18.3680    3.2580 O   0  0  0  0  0  1  0  0  0  0  0  0
   21.7750   16.0070    5.0170 O   0  0  0  0  0  0  0  0  0  0  0  0
   22.1870   16.7910    6.1380 C   0  0  0  0  0  0  0  0  0  0  0  0
   15.4630   14.9820    3.6970 N   0  0  0  0  0  0  0  0  0  0  0  0
   15.2260   13.4990    3.8620 C   0  0  2  0  0  0  0  0  0  0  0  0
   16.2370   12.7670    2.9090 C   0  0  0  0  0  0  0  0  0  0  0  0
   17.4640   12.9800    3.1190 O   0  0  0  0  0  0  0  0  0  0  0  0
   15.6850   11.9930    2.0620 O   0  0  0  0  0  1  0  0  0  0  0  0
   13.8050   13.1820    3.3840 C   0  0  0  0  0  0  0  0  0  0  0  0
   12.7500   13.7340    4.3440 C   0  0  0  0  0  0  0  0  0  0  0  0
   11.3760   12.2750    2.4550 C   0  0  0  0  0  0  0  0  0  0  0  0
   11.0620   13.6030    3.6490 S   0  0  0  0  0  0  0  0  0  0  0  0
   17.8279   14.6657    6.7588 H   0  0  0  0  0  0  0  0  0  0  0  0
   20.3208   14.7208    6.6988 H   0  0  0  0  0  0  0  0  0  0  0  0
   17.6964   17.2164    3.2640 H   0  0  0  0  0  0  0  0  0  0  0  0
   21.9142   16.2719    7.0686 H   0  0  0  0  0  0  0  0  0  0  0  0
   23.2771   16.9346    6.1042 H   0  0  0  0  0  0  0  0  0  0  0  0
   21.6870   17.7702    6.1042 H   0  0  0  0  0  0  0  0  0  0  0  0
   14.6048   15.3852    3.2948 H   0  0  0  0  0  0  0  0  0  0  0  0
   15.3549   13.1849    4.9083 H   0  0  0  0  0  0  0  0  0  0  0  0
   13.6540   13.6314    2.3914 H   0  0  0  0  0  0  0  0  0  0  0  0
   13.6927   12.0885    3.3423 H   0  0  0  0  0  0  0  0  0  0  0  0
   12.7926   13.1655    5.2847 H   0  0  0  0  0  0  0  0  0  0  0  0
   12.9673   14.7987    4.5147 H   0  0  0  0  0  0  0  0  0  0  0  0
   11.5966   11.3419    2.9941 H   0  0  0  0  0  0  0  0  0  0  0  0
   10.4869   12.1321    1.8233 H   0  0  0  0  0  0  0  0  0  0  0  0
   12.2350   12.5454    1.8233 H   0  0  0  0  0  0  0  0  0  0  0  0
  2  1  2  0
  3  1  2  0
  4  1  1  0
  5  4  2  0
  6  5  1  0
  7  6  2  0
  8  7  1  0
  9  4  1  0
  9  8  2  0
 10  8  1  0
 11 10  2  0
 12 10  1  0
 13  7  1  0
 14 13  1  0
 15  1  1  0
 16 15  1  0
 17 16  1  0
 18 17  2  0
 19 17  1  0
 20 16  1  0
 21 20  1  0
 23 22  1  0
 23 21  1  0
  5 24  1  0
  6 25  1  0
  9 26  1  0
 14 27  1  0
 14 28  1  0
 14 29  1  0
 15 30  1  0
 16 31  1  1
 20 32  1  0
 20 33  1  0
 21 34  1  0
 21 35  1  0
 22 36  1  0
 22 37  1  0
 22 38  1  0
M  CHG  2  12  -1  19  -1
M  END
$$$$
=
     RDKit          3D

 34 34  0  0  0  0  0  0  0  0999 V2000
   16.1250   14.2530    3.6290 C   0  0  0  0  0  0  0  0  0  0  0  0
   16.1580   13.1480    2.7800 C   0  0  0  0  0  0  0  0  0  0  0  0
   14.9910   12.4200    2.5280 C   0  0  0  0  0  0  0  0  0  0  0  0
   13.7850   12.7960    3.1190 C   0  0  0  0  0  0  0  0  0  0  0  0
   13.7250   13.9090    3.9620 C   0  0  0  0  0  0  0  0  0  0  0  0
   14.9070   14.6210    4.2190 C   0  0  0  0  0  0  0  0  0  0  0  0
   18.5850   14.7560    3.7120 C   0  0  0  0  0  0  0  0  0  0  0  0
   19.0340   13.7570    3.1620 O   0  0  0  0  0  0  0  0  0  0  0  0
   17.2500   15.0400    3.9480 N   0  0  0  0  0  0  0  0  0  0  0  0
   19.4820   15.8860    4.2060 C   0  0  0  0  0  0  0  0  0  0  0  0
   19.7270   18.3690    4.5010 C   0  0  0  0  0  0  0  0  0  0  0  0
   19.1160   17.2650    3.6360 C   0  0  0  0  0  0  0  0  0  0  0  0
   19.5970   17.4180    2.1910 C   0  0  0  0  0  0  0  0  0  0  0  0
   12.4470   14.2600    4.5950 C   0  0  0  0  0  0  0  0  0  0  0  0
   11.7020   13.4200    5.3310 C   0  0  0  0  0  0  0  0  0  0  0  0
   10.3720   13.8340    5.9610 C   0  0  0  0  0  0  0  0  0  0  0  0
    9.6120   14.4630    5.1690 O   0  0  0  0  0  0  0  0  0  0  0  0
   10.1950   13.5120    7.1680 O   0  0  0  0  0  1  0  0  0  0  0  0
   17.1046   12.8478    2.3069 H   0  0  0  0  0  0  0  0  0  0  0  0
   15.0243   11.5464    1.8603 H   0  0  0  0  0  0  0  0  0  0  0  0
   12.8742   12.2121    2.9201 H   0  0  0  0  0  0  0  0  0  0  0  0
   14.8774   15.4862    4.8977 H   0  0  0  0  0  0  0  0  0  0  0  0
   17.0552   15.9375    4.4144 H   0  0  0  0  0  0  0  0  0  0  0  0
   19.4074   15.9334    5.3024 H   0  0  0  0  0  0  0  0  0  0  0  0
   20.5017   15.6583    3.8618 H   0  0  0  0  0  0  0  0  0  0  0  0
   19.5895   18.1205    5.5637 H   0  0  0  0  0  0  0  0  0  0  0  0
   20.8012   18.4552    4.2806 H   0  0  0  0  0  0  0  0  0  0  0  0
   19.2296   19.3250    4.2806 H   0  0  0  0  0  0  0  0  0  0  0  0
   18.0195   17.3525    3.6448 H   0  0  0  0  0  0  0  0  0  0  0  0
   20.6452   17.7514    2.1868 H   0  0  0  0  0  0  0  0  0  0  0  0
   19.5180   16.4504    1.6738 H   0  0  0  0  0  0  0  0  0  0  0  0
   18.9735   18.1622    1.6738 H   0  0  0  0  0  0  0  0  0  0  0  0
   12.0733   15.2852    4.4560 H   0  0  0  0  0  0  0  0  0  0  0  0
   12.0630   12.3927    5.4870 H   0  0  0  0  0  0  0  0  0  0  0  0
  2  1  2  0
  3  2  1  0
  4  3  2  0
  5  4  1  0
  6  5  2  0
  6  1  1  0
  8  7  2  0
  9  1  1  0
  9  7  1  0
 10  7  1  0
 12 10  1  0
 12 11  1  0
 13 12  1  0
 14  5  1  0
 15 14  2  0
 16 15  1  0
 17 16  2  0
 18 16  1  0
  2 19  1  0
  3 20  1  0
  4 21  1  0
  6 22  1  0
  9 23  1  0
 10 24  1  0
 10 25  1  0
 11 26  1  0
 11 27  1  0
 11 28  1  0
 12 29  1  0
 13 30  1  0
 13 31  1  0
 13 32  1  0
 14 33  1  0
 15 34  1  0
M  CHG  1  18  -1
M  END
$$$$
=
     RDKit          3D

 32 33  0  0  0  0  0  0  0  0999 V2000
   19.0330   13.6190    3.2800 O   0  0  0  0  0  0  0  0  0  0  0  0
   18.4370   14.6540    3.5790 C   0  0  0  0  0  0  0  0  0  0  0  0
   19.2040   15.8800    3.9510 C   0  0  0  0  0  0  0  0  0  0  0  0
   19.3350   16.8530    2.9410 C   0  0  0  0  0  0  0  0  0  0  0  0
   20.0870   18.0100    3.1510 C   0  0  0  0  0  0  0  0  0  0  0  0
   20.7180   18.2110    4.3740 C   0  0  0  0  0  0  0  0  0  0  0  0
   20.5790   17.2660    5.3890 C   0  0  0  0  0  0  0  0  0  0  0  0
   19.8090   16.1010    5.2000 C   0  0  0  0  0  0  0  0  0  0  0  0
   19.6450   15.1660    6.3570 C   0  0  0  0  0  0  0  0  0  0  0  0
   20.6860   14.5760    6.7730 O   0  0  0  0  0  0  0  0  0  0  0  0
   18.4750   15.0630    6.8360 O   0  0  0  0  0  1  0  0  0  0  0  0
   16.9570   14.6820    3.7200 C   0  0  0  0  0  0  0  0  0  0  0  0
   16.2370   13.5750    3.4850 C   0  0  0  0  0  0  0  0  0  0  0  0
   14.7710   13.5660    3.5180 C   0  0  0  0  0  0  0  0  0  0  0  0
   14.0490   14.5430    4.2210 C   0  0  0  0  0  0  0  0  0  0  0  0
   12.6520   14.5380    4.2180 C   0  0  0  0  0  0  0  0  0  0  0  0
   11.9700   13.5540    3.4940 C   0  0  0  0  0  0  0  0  0  0  0  0
   12.6780   12.5820    2.7720 C   0  0  0  0  0  0  0  0  0  0  0  0
   14.0760   12.5970    2.7830 C   0  0  0  0  0  0  0  0  0  0  0  0
   10.5040   13.5390    3.4820 N   0  0  0  0  0  4  0  0  0  0  0  0
    9.9060   14.5520    3.8730 O   0  0  0  0  0  0  0  0  0  0  0  0
    9.9390   12.5090    3.0800 O   0  0  0  0  0  1  0  0  0  0  0  0
   18.8372   16.6988    1.9723 H   0  0  0  0  0  0  0  0  0  0  0  0
   20.1802   18.7602    2.3520 H   0  0  0  0  0  0  0  0  0  0  0  0
   21.3250   19.1132    4.5398 H   0  0  0  0  0  0  0  0  0  0  0  0
   21.0791   17.4325    6.3545 H   0  0  0  0  0  0  0  0  0  0  0  0
   16.4516   15.6125    4.0177 H   0  0  0  0  0  0  0  0  0  0  0  0
   16.7666   12.6378    3.2588 H   0  0  0  0  0  0  0  0  0  0  0  0
   14.5890   15.3211    4.7804 H   0  0  0  0  0  0  0  0  0  0  0  0
   12.0932   15.3009    4.7799 H   0  0  0  0  0  0  0  0  0  0  0  0
   12.1370   11.8131    2.2010 H   0  0  0  0  0  0  0  0  0  0  0  0
   14.6344   11.8421    2.2101 H   0  0  0  0  0  0  0  0  0  0  0  0
  2  1  2  0
  3  2  1  0
  4  3  2  0
  5  4  1  0
  6  5  2  0
  7  6  1  0
  8  3  1  0
  8  7  2  0
  9  8  1  0
 10  9  2  0
 11  9  1  0
 12  2  1  0
 13 12  2  0
 14 13  1  0
 15 14  2  0
 16 15  1  0
 17 16  2  0
 18 17  1  0
 19 18  2  0
 19 14  1  0
 20 17  1  0
 21 20  2  0
 22 20  1  0
  4 23  1  0
  5 24  1  0
  6 25  1  0
  7 26  1  0
 12 27  1  0
 13 28  1  0
 15 29  1  0
 16 30  1  0
 18 31  1  0
 19 32  1  0
M  CHG  3  11  -1  20   1  22  -1
M  END
$$$$
=
     RDKit          3D

 49 52  0  0  0  0  0  0  0  0999 V2000
   26.7600   24.0070   15.5780 O   0  0  0  0  0  0  0  0  0  0  0  0
   27.0150   25.1070   16.0430 C   0  0  0  0  0  0  0  0  0  0  0  0
   26.2000   26.1820   16.0540 N   0  0  0  0  0  0  0  0  0  0  0  0
   24.7820   26.2070   15.6440 C   0  0  1  0  0  0  0  0  0  0  0  0
   23.8770   26.7480   16.8000 C   0  0  0  0  0  0  0  0  0  0  0  0
   22.9870   27.5720   16.4220 O   0  0  0  0  0  0  0  0  0  0  0  0
   24.1360   26.3230   17.9610 O   0  0  0  0  0  1  0  0  0  0  0  0
   24.5600   27.1030   14.4140 C   0  0  0  0  0  0  0  0  0  0  0  0
   23.9100   26.3840   13.2670 C   0  0  0  0  0  0  0  0  0  0  0  0
   24.2920   25.2450   12.5870 C   0  0  0  0  0  0  0  0  0  0  0  0
   23.4180   24.9550   11.5670 N   0  0  0  0  0  0  0  0  0  0  0  0
   22.4890   25.8810   11.6490 C   0  0  0  0  0  0  0  0  0  0  0  0
   22.7400   26.7650   12.6600 N   0  0  0  0  0  0  0  0  0  0  0  0
   21.8890   27.8770   13.0100 C   0  0  0  0  0  0  0  0  0  0  0  0
   28.1840   25.4320   16.6510 O   0  0  0  0  0  0  0  0  0  0  0  0
   29.3540   24.7910   16.1100 C   0  0  0  0  0  0  0  0  0  0  0  0
   29.8820   25.5350   14.8770 C   0  0  0  0  0  0  0  0  0  0  0  0
   29.1780   25.1020   13.5950 C   0  0  0  0  0  0  0  0  0  0  0  0
   29.1530   23.8420   13.0170 C   0  0  0  0  0  0  0  0  0  0  0  0
   28.4440   23.6790   11.8260 C   0  0  0  0  0  0  0  0  0  0  0  0
   27.7830   24.7650   11.2290 C   0  0  0  0  0  0  0  0  0  0  0  0
   27.8240   26.0380   11.8120 C   0  0  0  0  0  0  0  0  0  0  0  0
   28.5270   26.2010   12.9930 C   0  0  0  0  0  0  0  0  0  0  0  0
   28.7540   27.3810   13.8010 C   0  0  0  0  0  0  0  0  0  0  0  0
   29.5490   27.0270   14.9140 C   0  0  0  0  0  0  0  0  0  0  0  0
   29.9390   27.9720   15.8510 C   0  0  0  0  0  0  0  0  0  0  0  0
   29.5130   29.2890   15.6730 C   0  0  0  0  0  0  0  0  0  0  0  0
   28.7160   29.6450   14.5720 C   0  0  0  0  0  0  0  0  0  0  0  0
   28.3330   28.6890   13.6270 C   0  0  0  0  0  0  0  0  0  0  0  0
   26.6061   27.0707   16.3798 H   0  0  0  0  0  0  0  0  0  0  0  0
   24.5114   25.1697   15.3973 H   0  0  0  0  0  0  0  0  0  0  0  0
   23.9172   27.9461   14.7073 H   0  0  0  0  0  0  0  0  0  0  0  0
   25.5501   27.4376   14.0707 H   0  0  0  0  0  0  0  0  0  0  0  0
   25.1820   24.6462   12.8305 H   0  0  0  0  0  0  0  0  0  0  0  0
   21.6147   25.9375   10.9838 H   0  0  0  0  0  0  0  0  0  0  0  0
   21.8257   27.9598   14.1051 H   0  0  0  0  0  0  0  0  0  0  0  0
   22.3096   28.8052   12.5958 H   0  0  0  0  0  0  0  0  0  0  0  0
   20.8831   27.7135   12.5958 H   0  0  0  0  0  0  0  0  0  0  0  0
   30.1395   24.7720   16.8798 H   0  0  0  0  0  0  0  0  0  0  0  0
   29.0793   23.7701   15.8062 H   0  0  0  0  0  0  0  0  0  0  0  0
   30.9601   25.3172   14.8901 H   0  0  0  0  0  0  0  0  0  0  0  0
   29.6770   22.9950   13.4838 H   0  0  0  0  0  0  0  0  0  0  0  0
   28.4024   22.6885   11.3493 H   0  0  0  0  0  0  0  0  0  0  0  0
   27.2264   24.6140   10.2923 H   0  0  0  0  0  0  0  0  0  0  0  0
   27.3092   26.8888   11.3419 H   0  0  0  0  0  0  0  0  0  0  0  0
   30.5662   27.6915   16.7100 H   0  0  0  0  0  0  0  0  0  0  0  0
   29.8048   30.0578   16.4036 H   0  0  0  0  0  0  0  0  0  0  0  0
   28.3895   30.6886   14.4523 H   0  0  0  0  0  0  0  0  0  0  0  0
   27.7110   28.9693   12.7641 H   0  0  0  0  0  0  0  0  0  0  0  0
  2  1  2  0
  3  2  1  0
  4  3  1  0
  5  4  1  0
  6  5  2  0
  7  5  1  0
  8  4  1  0
  9  8  1  0
 10  9  2  0
 11 10  1  0
 12 11  2  0
 13 12  1  0
 13  9  1  0
 14 13  1  0
 15  2  1  0
 16 15  1  0
 17 16  1  0
 18 17  1  0
 19 18  2  0
 20 19  1  0
 21 20  2  0
 22 21  1  0
 23 22  2  0
 23 18  1  0
 24 23  1  0
 25 17  1  0
 25 24  2  0
 26 25  1  0
 27 26  2  0
 28 27  1  0
 29 28  2  0
 29 24  1  0
  3 30  1  0
  4 31  1  6
  8 32  1  0
  8 33  1  0
 10 34  1  0
 12 35  1  0
 14 36  1  0
 14 37  1  0
 14 38  1  0
 16 39  1  0
 16 40  1  0
 17 41  1  0
 19 42  1  0
 20 43  1  0
 21 44  1  0
 22 45  1  0
 26 46  1  0
 27 47  1  0
 28 48  1  0
 29 49  1  0
M  CHG  1   7  -1
M  END
$$$$
=
     RDKit          3D

 14 14  0  0  0  0  0  0  0  0999 V2000
   17.5220   15.1690    4.0990 C   0  0  0  0  0  0  0  0  0  0  0  0
   16.8410   16.0930    4.8820 C   0  0  0  0  0  0  0  0  0  0  0  0
   15.4680   15.9520    5.0190 C   0  0  0  0  0  0  0  0  0  0  0  0
   14.8270   14.8980    4.3720 C   0  0  0  0  0  0  0  0  0  0  0  0
   15.5680   13.9960    3.5970 C   0  0  0  0  0  0  0  0  0  0  0  0
   16.9250   14.1390    3.4630 N   0  0  0  0  0  0  0  0  0  0  0  0
   14.8190   12.8400    2.8960 C   0  0  0  0  0  0  0  0  0  0  0  0
   15.5370   11.9790    2.2840 O   0  0  0  0  0  0  0  0  0  0  0  0
   13.5490   12.8140    2.9710 O   0  0  0  0  0  1  0  0  0  0  0  0
   20.1050   15.3720    3.8780 N   0  0  0  0  0  0  0  0  0  0  0  0
   18.9460   15.2770    3.9300 C   0  0  0  0  0  0  0  0  0  0  0  0
   17.3766   16.9146    5.3801 H   0  0  0  0  0  0  0  0  0  0  0  0
   14.8930   16.6630    5.6304 H   0  0  0  0  0  0  0  0  0  0  0  0
   13.7384   14.7737    4.4696 H   0  0  0  0  0  0  0  0  0  0  0  0
  2  1  2  0
  3  2  1  0
  4  3  2  0
  5  4  1  0
  6  5  2  0
  6  1  1  0
  7  5  1  0
  8  7  2  0
  9  7  1  0
 11 10  3  0
 11  1  1  0
  2 12  1  0
  3 13  1  0
  4 14  1  0
M  CHG  1   9  -1
M  END
$$$$
=
     RDKit          3D

 20 20  0  0  0  0  0  0  0  0999 V2000
   17.5890   16.0820    5.5950 C   0  0  0  0  0  0  0  0  0  0  0  0
   18.1690   17.4990    5.6870 C   0  0  0  0  0  0  0  0  0  0  0  0
   16.3440   16.0210    4.6580 C   0  0  0  0  0  0  0  0  0  0  0  0
   15.5900   15.2560    5.7590 C   0  0  0  0  0  0  0  0  0  0  0  0
   16.6220   15.7700    6.7780 C   0  0  0  0  0  0  0  0  0  0  0  0
   18.7170   15.0740    5.3270 C   0  0  0  0  0  0  0  0  0  0  0  0
   18.4100   13.5120    3.5880 O   0  0  0  0  0  1  0  0  0  0  0  0
   18.8820   14.6490    3.8740 C   0  0  0  0  0  0  0  0  0  0  0  0
   19.4930   15.4730    3.1370 O   0  0  0  0  0  0  0  0  0  0  0  0
   18.2841   17.7802    6.7442 H   0  0  0  0  0  0  0  0  0  0  0  0
   19.1506   17.5263    5.1914 H   0  0  0  0  0  0  0  0  0  0  0  0
   17.4882   18.2067    5.1914 H   0  0  0  0  0  0  0  0  0  0  0  0
   15.9133   17.0028    4.4118 H   0  0  0  0  0  0  0  0  0  0  0  0
   16.4218   15.6158    3.6383 H   0  0  0  0  0  0  0  0  0  0  0  0
   14.5633   15.6094    5.9354 H   0  0  0  0  0  0  0  0  0  0  0  0
   15.3778   14.1813    5.6594 H   0  0  0  0  0  0  0  0  0  0  0  0
   16.2978   16.6555    7.3443 H   0  0  0  0  0  0  0  0  0  0  0  0
   16.9441   15.1440    7.6232 H   0  0  0  0  0  0  0  0  0  0  0  0
   19.6631   15.5277    5.6573 H   0  0  0  0  0  0  0  0  0  0  0  0
   18.4467   14.1626    5.8804 H   0  0  0  0  0  0  0  0  0  0  0  0
  2  1  1  0
  3  1  1  0
  4  3  1  0
  5  4  1  0
  5  1  1  0
  6  1  1  0
  8  7  1  0
  8  6  1  0
  9  8  2  0
  2 10  1  0
  2 11  1  0
  2 12  1  0
  3 13  1  0
  3 14  1  0
  4 15  1  0
  4 16  1  0
  5 17  1  0
  5 18  1  0
  6 19  1  0
  6 20  1  0
M  CHG  1   7  -1
M  END
$$$$
=
     RDKit          3D

 21 21  0  0  0  0  0  0  0  0999 V2000
   17.1750   16.0690    6.3060 C   0  0  0  0  0  0  0  0  0  0  0  0
   16.3630   15.8790    5.0180 C   0  0  2  0  0  0  0  0  0  0  0  0
   15.0120   15.2250    5.3890 C   0  0  0  0  0  0  0  0  0  0  0  0
   14.2840   14.6840    4.1620 C   0  0  0  0  0  0  0  0  0  0  0  0
   15.1340   13.6360    3.4450 C   0  0  0  0  0  0  0  0  0  0  0  0
   16.5560   14.0680    3.2820 C   0  0  0  0  0  0  0  0  0  0  0  0
   17.1090   15.0890    3.9660 C   0  0  0  0  0  0  0  0  0  0  0  0
   18.5590   15.5100    3.6230 C   0  0  0  0  0  0  0  0  0  0  0  0
   19.4130   14.5810    3.7060 O   0  0  0  0  0  0  0  0  0  0  0  0
   18.7150   16.7250    3.3100 O   0  0  0  0  0  1  0  0  0  0  0  0
   16.5214   15.9161    7.1774 H   0  0  0  0  0  0  0  0  0  0  0  0
   17.9975   15.3391    6.3320 H   0  0  0  0  0  0  0  0  0  0  0  0
   17.5882   17.0881    6.3320 H   0  0  0  0  0  0  0  0  0  0  0  0
   16.1850   16.8625    4.5586 H   0  0  0  0  0  0  0  0  0  0  0  0
   15.1986   14.3949    6.0862 H   0  0  0  0  0  0  0  0  0  0  0  0
   14.3762   15.9954    5.8496 H   0  0  0  0  0  0  0  0  0  0  0  0
   13.3361   14.2244    4.4786 H   0  0  0  0  0  0  0  0  0  0  0  0
   14.0931   15.5171    3.4695 H   0  0  0  0  0  0  0  0  0  0  0  0
   15.1129   12.7043    4.0294 H   0  0  0  0  0  0  0  0  0  0  0  0
   14.7105   13.4919    2.4400 H   0  0  0  0  0  0  0  0  0  0  0  0
   17.1857   13.5222    2.5640 H   0  0  0  0  0  0  0  0  0  0  0  0
  2  1  1  0
  3  2  1  0
  4  3  1  0
  5  4  1  0
  6  5  1  0
  7  6  2  0
  7  2  1  0
  8  7  1  0
  9  8  2  0
 10  8  1  0
  1 11  1  0
  1 12  1  0
  1 13  1  0
  2 14  1  6
  3 15  1  0
  3 16  1  0
  4 17  1  0
  4 18  1  0
  5 19  1  0
  5 20  1  0
  6 21  1  0
M  CHG  1  10  -1
M  END
$$$$
=
     RDKit          3D

 47 49  0  0  0  0  0  0  0  0999 V2000
   27.1460   24.7170   15.9430 O   0  0  0  0  0  0  0  0  0  0  0  0
   25.4910   25.8430   15.0160 N   0  0  0  0  0  0  0  0  0  0  0  0
   26.3120   25.7740   16.0980 C   0  0  0  0  0  0  0  0  0  0  0  0
   26.3080   26.5230   17.0640 O   0  0  0  0  0  0  0  0  0  0  0  0
   24.1360   26.4210   15.1260 C   0  0  2  0  0  0  0  0  0  0  0  0
   23.2260   25.5310   16.0400 C   0  0  0  0  0  0  0  0  0  0  0  0
   22.7960   24.4670   15.5140 O   0  0  0  0  0  0  0  0  0  0  0  0
   23.0380   25.9970   17.2050 O   0  0  0  0  0  1  0  0  0  0  0  0
   23.5220   26.5390   13.7260 C   0  0  0  0  0  0  0  0  0  0  0  0
   24.5150   26.2670   12.5930 C   0  0  0  0  0  0  0  0  0  0  0  0
   24.7140   24.5940   10.6300 C   0  0  0  0  0  0  0  0  0  0  0  0
   24.4700   24.8320   12.0970 C   0  0  0  0  0  0  0  0  0  0  0  0
   24.3860   23.8830   12.8820 O   0  0  0  0  0  0  0  0  0  0  0  0
   28.5110   24.9430   16.3300 C   0  0  0  0  0  0  0  0  0  0  0  0
   29.3530   25.5450   15.1950 C   0  0  0  0  0  0  0  0  0  0  0  0
   29.0900   27.0420   15.0440 C   0  0  0  0  0  0  0  0  0  0  0  0
   29.3150   28.0500   15.9700 C   0  0  0  0  0  0  0  0  0  0  0  0
   28.9950   29.3590   15.6080 C   0  0  0  0  0  0  0  0  0  0  0  0
   28.4640   29.6440   14.3400 C   0  0  0  0  0  0  0  0  0  0  0  0
   28.2490   28.6250   13.4060 C   0  0  0  0  0  0  0  0  0  0  0  0
   28.5680   27.3240   13.7630 C   0  0  0  0  0  0  0  0  0  0  0  0
   28.4790   26.0910   13.0110 C   0  0  0  0  0  0  0  0  0  0  0  0
   28.9430   25.0290   13.8170 C   0  0  0  0  0  0  0  0  0  0  0  0
   29.0180   23.7330   13.3300 C   0  0  0  0  0  0  0  0  0  0  0  0
   28.5930   23.4970   12.0210 C   0  0  0  0  0  0  0  0  0  0  0  0
   28.1110   24.5460   11.2210 C   0  0  0  0  0  0  0  0  0  0  0  0
   28.0540   25.8540   11.7130 C   0  0  0  0  0  0  0  0  0  0  0  0
   25.8187   25.4871   14.1067 H   0  0  0  0  0  0  0  0  0  0  0  0
   24.2083   27.4189   15.5832 H   0  0  0  0  0  0  0  0  0  0  0  0
   22.6976   25.8151   13.6463 H   0  0  0  0  0  0  0  0  0  0  0  0
   23.1808   27.5784   13.6115 H   0  0  0  0  0  0  0  0  0  0  0  0
   24.2796   26.9361   11.7523 H   0  0  0  0  0  0  0  0  0  0  0  0
   25.5250   26.4467   12.9901 H   0  0  0  0  0  0  0  0  0  0  0  0
   25.4965   23.8307   10.5076 H   0  0  0  0  0  0  0  0  0  0  0  0
   23.7847   24.2458   10.1555 H   0  0  0  0  0  0  0  0  0  0  0  0
   25.0390   25.5317   10.1555 H   0  0  0  0  0  0  0  0  0  0  0  0
   28.5252   25.6351   17.1849 H   0  0  0  0  0  0  0  0  0  0  0  0
   28.9499   23.9686   16.5907 H   0  0  0  0  0  0  0  0  0  0  0  0
   30.3858   25.2835   15.4688 H   0  0  0  0  0  0  0  0  0  0  0  0
   29.7339   27.8238   16.9617 H   0  0  0  0  0  0  0  0  0  0  0  0
   29.1607   30.1771   16.3244 H   0  0  0  0  0  0  0  0  0  0  0  0
   28.2137   30.6825   14.0774 H   0  0  0  0  0  0  0  0  0  0  0  0
   27.8365   28.8508   12.4116 H   0  0  0  0  0  0  0  0  0  0  0  0
   29.4013   22.9143   13.9568 H   0  0  0  0  0  0  0  0  0  0  0  0
   28.6362   22.4770   11.6113 H   0  0  0  0  0  0  0  0  0  0  0  0
   27.7742   24.3363   10.1950 H   0  0  0  0  0  0  0  0  0  0  0  0
   27.6805   26.6758   11.0844 H   0  0  0  0  0  0  0  0  0  0  0  0
  3  2  1  0
  3  1  1  0
  4  3  2  0
  5  2  1  0
  6  5  1  0
  7  6  2  0
  8  6  1  0
  9  5  1  0
 10  9  1  0
 12 11  1  0
 12 10  1  0
 13 12  2  0
 14  1  1  0
 15 14  1  0
 16 15  1  0
 17 16  2  0
 18 17  1  0
 19 18  2  0
 20 19  1  0
 21 16  1  0
 21 20  2  0
 22 21  1  0
 23 22  2  0
 23 15  1  0
 24 23  1  0
 25 24  2  0
 26 25  1  0
 27 26  2  0
 27 22  1  0
  2 28  1  0
  5 29  1  1
  9 30  1  0
  9 31  1  0
 10 32  1  0
 10 33  1  0
 11 34  1  0
 11 35  1  0
 11 36  1  0
 14 37  1  0
 14 38  1  0
 15 39  1  0
 17 40  1  0
 18 41  1  0
 19 42  1  0
 20 43  1  0
 24 44  1  0
 25 45  1  0
 26 46  1  0
 27 47  1  0
M  CHG  1   8  -1
M  END
$$$$
=
     RDKit          3D

 15 15  0  0  0  0  0  0  0  0999 V2000
   19.4670   15.4790    4.2890 C   0  0  0  0  0  0  0  0  0  0  0  0
   19.8650   16.5880    3.5520 C   0  0  0  0  0  0  0  0  0  0  0  0
   19.2770   16.8910    2.3860 F   0  0  0  0  0  0  0  0  0  0  0  0
   20.9000   17.4140    3.9940 C   0  0  0  0  0  0  0  0  0  0  0  0
   21.5560   17.1310    5.1920 C   0  0  0  0  0  0  0  0  0  0  0  0
   21.1550   16.0260    5.9440 C   0  0  0  0  0  0  0  0  0  0  0  0
   20.1190   15.2100    5.4870 C   0  0  0  0  0  0  0  0  0  0  0  0
   19.7670   14.1630    6.2480 F   0  0  0  0  0  0  0  0  0  0  0  0
   17.1950   14.9820    4.0840 O   0  0  0  0  0  1  0  0  0  0  0  0
   18.3770   14.6060    3.8130 C   0  0  0  0  0  0  0  0  0  0  0  0
   18.7230   13.5640    3.1770 O   0  0  0  0  0  0  0  0  0  0  0  0
   22.8770   18.1830    5.7550 S   0  0  0  0  0  0  0  0  0  0  0  0
   21.1984   18.2885    3.3972 H   0  0  0  0  0  0  0  0  0  0  0  0
   21.6553   15.7981    6.8968 H   0  0  0  0  0  0  0  0  0  0  0  0
   22.8963   18.1984    7.1248 H   0  0  0  0  0  0  0  0  0  0  0  0
  2  1  2  0
  3  2  1  0
  4  2  1  0
  5  4  2  0
  6  5  1  0
  7  1  1  0
  7  6  2  0
  8  7  1  0
 10  9  1  0
 10  1  1  0
 11 10  2  0
 12  5  1  0
  4 13  1  0
  6 14  1  0
 12 15  1  0
M  CHG  1   9  -1
M  END
$$$$
=
     RDKit          3D

 23 24  0  0  0  0  0  0  0  0999 V2000
   17.3290   15.0470    4.4410 C   0  0  0  0  0  0  0  0  0  0  0  0
   16.1100   15.5770    4.8560 C   0  0  0  0  0  0  0  0  0  0  0  0
   15.0660   14.7900    4.3080 C   0  0  0  0  0  0  0  0  0  0  0  0
   15.7020   13.8020    3.5750 C   0  0  0  0  0  0  0  0  0  0  0  0
   17.0460   13.9500    3.6500 O   0  0  0  0  0  0  0  0  0  0  0  0
   15.0410   12.8020    2.8630 C   0  0  0  0  0  0  0  0  0  0  0  0
   13.6430   12.8200    2.9100 C   0  0  0  0  0  0  0  0  0  0  0  0
   12.9650   13.8080    3.6440 C   0  0  0  0  0  0  0  0  0  0  0  0
   13.6600   14.8070    4.3540 C   0  0  0  0  0  0  0  0  0  0  0  0
   11.4960   13.8000    3.6730 N   0  0  0  0  0  4  0  0  0  0  0  0
   10.9250   14.7160    4.2820 O   0  0  0  0  0  0  0  0  0  0  0  0
   10.9090   12.8780    3.0870 O   0  0  0  0  0  1  0  0  0  0  0  0
   19.3900   14.9610    5.7200 C   0  0  0  0  0  0  0  0  0  0  0  0
   18.6650   15.4550    4.7060 C   0  0  0  0  0  0  0  0  0  0  0  0
   21.5260   15.6740    4.9670 O   0  0  0  0  0  1  0  0  0  0  0  0
   20.8220   15.4160    5.9800 C   0  0  0  0  0  0  0  0  0  0  0  0
   21.1150   15.4760    7.2080 O   0  0  0  0  0  0  0  0  0  0  0  0
   15.9791   16.4585    5.5009 H   0  0  0  0  0  0  0  0  0  0  0  0
   15.5906   12.0381    2.2935 H   0  0  0  0  0  0  0  0  0  0  0  0
   13.0694   12.0540    2.3676 H   0  0  0  0  0  0  0  0  0  0  0  0
   13.1203   15.5760    4.9262 H   0  0  0  0  0  0  0  0  0  0  0  0
   18.9395   14.2070    6.3823 H   0  0  0  0  0  0  0  0  0  0  0  0
   19.1242   16.2093    4.0501 H   0  0  0  0  0  0  0  0  0  0  0  0
  2  1  2  0
  3  2  1  0
  4  3  2  0
  5  4  1  0
  5  1  1  0
  6  4  1  0
  7  6  2  0
  8  7  1  0
  9  8  2  0
  9  3  1  0
 10  8  1  0
 11 10  2  0
 12 10  1  0
 14  1  1  0
 14 13  2  0
 16 15  1  0
 16 13  1  0
 17 16  2  0
  2 18  1  0
  6 19  1  0
  7 20  1  0
  9 21  1  0
 13 22  1  0
 14 23  1  0
M  CHG  3  10   1  12  -1  15  -1
M  END
$$$$
=
     RDKit          3D

 24 25  0  0  0  0  0  0  0  0999 V2000
   17.4220   15.1100    4.3740 C   0  0  0  0  0  0  0  0  0  0  0  0
   16.7660   16.0910    5.0950 C   0  0  0  0  0  0  0  0  0  0  0  0
   17.2330   17.2580    5.8690 C   0  0  0  0  0  0  0  0  0  0  0  0
   15.4100   15.8860    5.0510 O   0  0  0  0  0  0  0  0  0  0  0  0
   15.2280   14.7730    4.3020 C   0  0  0  0  0  0  0  0  0  0  0  0
   16.4210   14.2590    3.8480 C   0  0  0  0  0  0  0  0  0  0  0  0
   16.4930   13.0320    3.0110 C   0  0  0  0  0  0  0  0  0  0  0  0
   15.1000   12.6760    2.4430 C   0  0  0  0  0  0  0  0  0  0  0  0
   13.9710   12.8270    3.4860 C   0  0  0  0  0  0  0  0  0  0  0  0
   13.8670   14.2640    4.0380 C   0  0  0  0  0  0  0  0  0  0  0  0
   19.4500   15.3400    3.0710 O   0  0  0  0  0  1  0  0  0  0  0  0
   18.9740   14.9760    4.1900 C   0  0  0  0  0  0  0  0  0  0  0  0
   19.6280   14.5120    5.1740 O   0  0  0  0  0  0  0  0  0  0  0  0
   17.1470   17.0430    6.9444 H   0  0  0  0  0  0  0  0  0  0  0  0
   18.2839   17.4666    5.6197 H   0  0  0  0  0  0  0  0  0  0  0  0
   16.6162   18.1340    5.6197 H   0  0  0  0  0  0  0  0  0  0  0  0
   17.1898   13.2038    2.1774 H   0  0  0  0  0  0  0  0  0  0  0  0
   16.8441   12.1976    3.6358 H   0  0  0  0  0  0  0  0  0  0  0  0
   14.8858   13.3424    1.5945 H   0  0  0  0  0  0  0  0  0  0  0  0
   15.1279   11.6200    2.1362 H   0  0  0  0  0  0  0  0  0  0  0  0
   13.0147   12.5608    3.0121 H   0  0  0  0  0  0  0  0  0  0  0  0
   14.2030   12.1602    4.3295 H   0  0  0  0  0  0  0  0  0  0  0  0
   13.3683   14.9085    3.2991 H   0  0  0  0  0  0  0  0  0  0  0  0
   13.2809   14.2649    4.9689 H   0  0  0  0  0  0  0  0  0  0  0  0
  2  1  2  0
  3  2  1  0
  4  2  1  0
  5  4  1  0
  6  5  2  0
  6  1  1  0
  7  6  1  0
  8  7  1  0
  9  8  1  0
 10  9  1  0
 10  5  1  0
 12 11  1  0
 12  1  1  0
 13 12  2  0
  3 14  1  0
  3 15  1  0
  3 16  1  0
  7 17  1  0
  7 18  1  0
  8 19  1  0
  8 20  1  0
  9 21  1  0
  9 22  1  0
 10 23  1  0
 10 24  1  0
M  CHG  1  11  -1
M  END
$$$$
=
     RDKit          3D

 28 28  0  0  0  0  0  0  0  0999 V2000
   18.3370   15.9960    5.8220 C   0  0  0  0  0  0  0  0  0  0  0  0
   18.4080   15.1400    6.7110 O   0  0  0  0  0  0  0  0  0  0  0  0
   19.4570   16.3800    5.0880 N   0  0  0  0  0  0  0  0  0  0  0  0
   20.7070   15.6670    5.3360 C   0  0  0  0  0  0  0  0  0  0  0  0
   21.6570   16.4920    6.1990 C   0  0  0  0  0  0  0  0  0  0  0  0
   22.3620   17.5710    5.5210 N   0  0  0  0  0  0  0  0  0  0  0  0
   21.9470   18.3600    4.4920 C   0  0  0  0  0  0  0  0  0  0  0  0
   22.5870   19.3890    4.2620 O   0  0  0  0  0  0  0  0  0  0  0  0
   20.8030   17.9300    3.6070 C   0  0  0  0  0  0  0  0  0  0  0  0
   19.5190   17.6550    4.3680 C   0  0  0  0  0  0  0  0  0  0  0  0
   16.9940   16.6460    5.5240 C   0  0  0  0  0  0  0  0  0  0  0  0
   15.8480   15.6540    5.6730 C   0  0  0  0  0  0  0  0  0  0  0  0
   16.0010   15.0420    3.4010 O   0  0  0  0  0  1  0  0  0  0  0  0
   15.2090   15.3930    4.3180 C   0  0  0  0  0  0  0  0  0  0  0  0
   13.9590   15.5740    4.2760 O   0  0  0  0  0  0  0  0  0  0  0  0
   20.4835   14.7220    5.8528 H   0  0  0  0  0  0  0  0  0  0  0  0
   21.1949   15.4771    4.3686 H   0  0  0  0  0  0  0  0  0  0  0  0
   21.0696   16.9354    7.0165 H   0  0  0  0  0  0  0  0  0  0  0  0
   22.4372   15.7922    6.5330 H   0  0  0  0  0  0  0  0  0  0  0  0
   23.3113   17.7652    5.8703 H   0  0  0  0  0  0  0  0  0  0  0  0
   20.6098   18.7283    2.8752 H   0  0  0  0  0  0  0  0  0  0  0  0
   21.1025   16.9870    3.1264 H   0  0  0  0  0  0  0  0  0  0  0  0
   19.3840   18.4627    5.1025 H   0  0  0  0  0  0  0  0  0  0  0  0
   18.7286   17.6022    3.6048 H   0  0  0  0  0  0  0  0  0  0  0  0
   16.8377   17.4803    6.2236 H   0  0  0  0  0  0  0  0  0  0  0  0
   17.0073   17.0041    4.4840 H   0  0  0  0  0  0  0  0  0  0  0  0
   16.2347   14.7089    6.0819 H   0  0  0  0  0  0  0  0  0  0  0  0
   15.0930   16.0730    6.3544 H   0  0  0  0  0  0  0  0  0  0  0  0
  2  1  2  0
  3  1  1  0
  4  3  1  0
  5  4  1  0
  6  5  1  0
  7  6  1  0
  8  7  2  0
  9  7  1  0
 10  9  1  0
 10  3  1  0
 11  1  1  0
 12 11  1  0
 14 13  1  0
 14 12  1  0
 15 14  2  0
  4 16  1  0
  4 17  1  0
  5 18  1  0
  5 19  1  0
  6 20  1  0
  9 21  1  0
  9 22  1  0
 10 23  1  0
 10 24  1  0
 11 25  1  0
 11 26  1  0
 12 27  1  0
 12 28  1  0
M  CHG  1  13  -1
M  END
$$$$
=
     RDKit          3D

 31 31  0  0  0  0  0  0  0  0999 V2000
   16.9810   15.0280    3.6710 C   0  0  0  0  0  0  0  0  0  0  0  0
   15.7920   14.5610    3.1020 C   0  0  0  0  0  0  0  0  0  0  0  0
   15.6840   13.2330    2.6880 C   0  0  0  0  0  0  0  0  0  0  0  0
   16.7740   12.3770    2.8230 C   0  0  0  0  0  0  0  0  0  0  0  0
   17.9730   12.8510    3.3630 C   0  0  0  0  0  0  0  0  0  0  0  0
   18.0980   14.1820    3.7930 C   0  0  0  0  0  0  0  0  0  0  0  0
   19.3930   14.6720    4.2870 C   0  0  0  0  0  0  0  0  0  0  0  0
   19.7420   14.6970    5.5820 C   0  0  0  0  0  0  0  0  0  0  0  0
   21.0810   15.2550    6.0670 C   0  0  0  0  0  0  0  0  0  0  0  0
   21.1250   15.4500    7.3160 O   0  0  0  0  0  0  0  0  0  0  0  0
   21.9590   15.4610    5.1850 O   0  0  0  0  0  1  0  0  0  0  0  0
   16.9950   16.3550    4.0240 O   0  0  0  0  0  0  0  0  0  0  0  0
   16.3200   16.6110    5.2740 C   0  0  1  0  0  0  0  0  0  0  0  0
   15.8700   15.2560    5.8190 C   0  0  0  0  0  0  0  0  0  0  0  0
   18.4420   18.0280    5.4960 C   0  0  0  0  0  0  0  0  0  0  0  0
   17.3150   17.3060    6.2180 C   0  0  0  0  0  0  0  0  0  0  0  0
   14.9381   15.2437    2.9803 H   0  0  0  0  0  0  0  0  0  0  0  0
   14.7418   12.8638    2.2568 H   0  0  0  0  0  0  0  0  0  0  0  0
   16.6915   11.3273    2.5046 H   0  0  0  0  0  0  0  0  0  0  0  0
   18.8325   12.1704    3.4526 H   0  0  0  0  0  0  0  0  0  0  0  0
   20.1207   15.0409    3.5492 H   0  0  0  0  0  0  0  0  0  0  0  0
   19.0359   14.2997    6.3260 H   0  0  0  0  0  0  0  0  0  0  0  0
   15.4429   17.2654    5.1621 H   0  0  0  0  0  0  0  0  0  0  0  0
   15.8786   15.2819    6.9187 H   0  0  0  0  0  0  0  0  0  0  0  0
   14.8514   15.0385    5.4653 H   0  0  0  0  0  0  0  0  0  0  0  0
   16.5561   14.4723    5.4653 H   0  0  0  0  0  0  0  0  0  0  0  0
   19.1283   18.4677    6.2347 H   0  0  0  0  0  0  0  0  0  0  0  0
   18.9909   17.3130    4.8655 H   0  0  0  0  0  0  0  0  0  0  0  0
   18.0219   18.8255    4.8655 H   0  0  0  0  0  0  0  0  0  0  0  0
   16.7638   18.0407    6.8234 H   0  0  0  0  0  0  0  0  0  0  0  0
   17.7787   16.5193    6.8313 H   0  0  0  0  0  0  0  0  0  0  0  0
  2  1  2  0
  3  2  1  0
  4  3  2  0
  5  4  1  0
  6  5  2  0
  6  1  1  0
  7  6  1  0
  8  7  2  0
  9  8  1  0
 10  9  2  0
 11  9  1  0
 12  1  1  0
 13 12  1  0
 14 13  1  0
 16 13  1  0
 16 15  1  0
  2 17  1  0
  3 18  1  0
  4 19  1  0
  5 20  1  0
  7 21  1  0
  8 22  1  0
 13 23  1  6
 14 24  1  0
 14 25  1  0
 14 26  1  0
 15 27  1  0
 15 28  1  0
 15 29  1  0
 16 30  1  0
 16 31  1  0
M  CHG  1  11  -1
M  END
$$$$
=
     RDKit          3D

 26 27  0  0  0  0  0  0  0  0999 V2000
   18.3710   16.5930    4.2680 C   0  0  2  0  0  0  0  0  0  0  0  0
   17.6120   16.8440    5.5700 C   0  0  0  0  0  0  0  0  0  0  0  0
   16.1940   16.7430    5.3510 O   0  0  0  0  0  0  0  0  0  0  0  0
   15.8880   15.6140    4.6340 C   0  0  0  0  0  0  0  0  0  0  0  0
   16.8370   14.8830    3.9130 C   0  0  0  0  0  0  0  0  0  0  0  0
   18.1570   15.2400    3.8290 O   0  0  0  0  0  0  0  0  0  0  0  0
   16.4590   13.7240    3.2380 C   0  0  0  0  0  0  0  0  0  0  0  0
   15.1270   13.3100    3.2570 C   0  0  0  0  0  0  0  0  0  0  0  0
   14.1730   14.0540    3.9530 C   0  0  0  0  0  0  0  0  0  0  0  0
   14.5540   15.2090    4.6410 C   0  0  0  0  0  0  0  0  0  0  0  0
   19.8750   16.8590    4.3880 C   0  0  0  0  0  0  0  0  0  0  0  0
   20.7050   15.6470    4.8080 C   0  0  0  0  0  0  0  0  0  0  0  0
   20.7790   14.7620    6.9850 O   0  0  0  0  0  1  0  0  0  0  0  0
   21.2080   15.7000    6.2540 C   0  0  0  0  0  0  0  0  0  0  0  0
   21.9630   16.6660    6.5530 O   0  0  0  0  0  0  0  0  0  0  0  0
   17.9740   17.3049    3.5294 H   0  0  0  0  0  0  0  0  0  0  0  0
   17.9175   16.0970    6.3174 H   0  0  0  0  0  0  0  0  0  0  0  0
   17.8463   17.8566    5.9302 H   0  0  0  0  0  0  0  0  0  0  0  0
   17.2104   13.1360    2.6906 H   0  0  0  0  0  0  0  0  0  0  0  0
   14.8282   12.3960    2.7228 H   0  0  0  0  0  0  0  0  0  0  0  0
   13.1215   13.7312    3.9599 H   0  0  0  0  0  0  0  0  0  0  0  0
   13.8025   15.7978    5.1873 H   0  0  0  0  0  0  0  0  0  0  0  0
   20.2415   17.2031    3.4096 H   0  0  0  0  0  0  0  0  0  0  0  0
   19.9958   17.6095    5.1831 H   0  0  0  0  0  0  0  0  0  0  0  0
   20.0838   14.7467    4.6918 H   0  0  0  0  0  0  0  0  0  0  0  0
   21.5965   15.6363    4.1638 H   0  0  0  0  0  0  0  0  0  0  0  0
  2  1  1  0
  3  2  1  0
  4  3  1  0
  5  4  2  0
  6  5  1  0
  6  1  1  0
  7  5  1  0
  8  7  2  0
  9  8  1  0
 10  9  2  0
 10  4  1  0
 11  1  1  0
 12 11  1  0
 14 12  1  0
 14 13  1  0
 15 14  2  0
  1 16  1  6
  2 17  1  0
  2 18  1  0
  7 19  1  0
  8 20  1  0
  9 21  1  0
 10 22  1  0
 11 23  1  0
 11 24  1  0
 12 25  1  0
 12 26  1  0
M  CHG  1  13  -1
M  END
$$$$
=
     RDKit          3D

 26 27  0  0  0  0  0  0  0  0999 V2000
   17.0070   14.7320    4.3030 C   0  0  2  0  0  0  0  0  0  0  0  0
   16.6110   15.8000    5.1720 N   0  0  0  0  0  0  0  0  0  0  0  0
   17.6490   16.6850    5.3900 C   0  0  0  0  0  0  0  0  0  0  0  0
   17.4740   17.6950    6.0600 O   0  0  0  0  0  0  0  0  0  0  0  0
   18.7940   16.2050    4.7860 N   0  0  0  0  0  0  0  0  0  0  0  0
   18.4960   15.0230    4.1260 C   0  0  0  0  0  0  0  0  0  0  0  0
   19.2570   14.2330    3.5720 O   0  0  0  0  0  0  0  0  0  0  0  0
   20.0750   16.8310    4.8220 C   0  0  0  0  0  0  0  0  0  0  0  0
   20.4870   17.7280    3.8190 C   0  0  0  0  0  0  0  0  0  0  0  0
   21.7420   18.3490    3.8600 C   0  0  0  0  0  0  0  0  0  0  0  0
   22.6080   18.0770    4.9070 C   0  0  0  0  0  0  0  0  0  0  0  0
   22.2430   17.1930    5.9090 C   0  0  0  0  0  0  0  0  0  0  0  0
   20.9860   16.5750    5.8630 C   0  0  0  0  0  0  0  0  0  0  0  0
   23.8060   18.6720    4.9490 F   0  0  0  0  0  0  0  0  0  0  0  0
   16.2030   14.5950    3.0320 C   0  0  0  0  0  0  0  0  0  0  0  0
   16.3500   12.4120    2.1280 O   0  0  0  0  0  1  0  0  0  0  0  0
   15.6030   13.2320    2.7250 C   0  0  0  0  0  0  0  0  0  0  0  0
   14.4060   13.0990    3.1050 O   0  0  0  0  0  0  0  0  0  0  0  0
   16.8107   13.7324    4.7180 H   0  0  0  0  0  0  0  0  0  0  0  0
   15.6711   15.8958    5.5823 H   0  0  0  0  0  0  0  0  0  0  0  0
   19.8070   17.9468    2.9825 H   0  0  0  0  0  0  0  0  0  0  0  0
   22.0385   19.0491    3.0650 H   0  0  0  0  0  0  0  0  0  0  0  0
   22.9356   16.9773    6.7359 H   0  0  0  0  0  0  0  0  0  0  0  0
   20.7046   15.8721    6.6609 H   0  0  0  0  0  0  0  0  0  0  0  0
   15.3735   15.3153    3.0874 H   0  0  0  0  0  0  0  0  0  0  0  0
   16.9261   14.7720    2.2222 H   0  0  0  0  0  0  0  0  0  0  0  0
  2  1  1  0
  3  2  1  0
  4  3  2  0
  5  3  1  0
  6  5  1  0
  6  1  1  0
  7  6  2  0
  8  5  1  0
  9  8  2  0
 10  9  1  0
 11 10  2  0
 12 11  1  0
 13  8  1  0
 13 12  2  0
 14 11  1  0
 15  1  1  0
 17 15  1  0
 17 16  1  0
 18 17  2  0
  1 19  1  1
  2 20  1  0
  9 21  1  0
 10 22  1  0
 12 23  1  0
 13 24  1  0
 15 25  1  0
 15 26  1  0
M  CHG  1  16  -1
M  END
$$$$
=
     RDKit          3D

 32 32  0  0  0  0  0  0  0  0999 V2000
   17.1220   15.0060    4.1180 C   0  0  0  0  0  0  0  0  0  0  0  0
   18.3440   14.5110    3.6500 C   0  0  0  0  0  0  0  0  0  0  0  0
   19.5280   14.7700    4.3460 C   0  0  0  0  0  0  0  0  0  0  0  0
   19.5140   15.5210    5.5300 C   0  0  0  0  0  0  0  0  0  0  0  0
   18.2900   15.9930    6.0120 C   0  0  0  0  0  0  0  0  0  0  0  0
   17.1050   15.7390    5.3120 C   0  0  0  0  0  0  0  0  0  0  0  0
   20.8200   15.7730    6.2180 C   0  0  0  0  0  0  0  0  0  0  0  0
   21.0040   15.2910    7.3390 O   0  0  0  0  0  0  0  0  0  0  0  0
   21.8910   16.6280    5.5630 C   0  0  0  0  0  0  0  0  0  0  0  0
   21.3760   17.9820    5.0800 C   0  0  0  0  0  0  0  0  0  0  0  0
   21.5170   18.1740    3.5730 C   0  0  0  0  0  0  0  0  0  0  0  0
   20.2410   17.9830    2.7490 C   0  0  0  0  0  0  0  0  0  0  0  0
   20.3920   17.7260    1.5250 O   0  0  0  0  0  0  0  0  0  0  0  0
   19.1760   18.1190    3.4190 O   0  0  0  0  0  1  0  0  0  0  0  0
   15.8410   14.7420    3.3660 C   0  0  0  0  0  0  0  0  0  0  0  0
   15.2220   12.5410    2.7360 C   0  0  0  0  0  0  0  0  0  0  0  0
   15.2100   13.5230    3.7670 O   0  0  0  0  0  0  0  0  0  0  0  0
   18.3732   13.9133    2.7270 H   0  0  0  0  0  0  0  0  0  0  0  0
   20.4817   14.3803    3.9606 H   0  0  0  0  0  0  0  0  0  0  0  0
   18.2578   16.5686    6.9488 H   0  0  0  0  0  0  0  0  0  0  0  0
   16.1498   16.1190    5.7035 H   0  0  0  0  0  0  0  0  0  0  0  0
   22.6942   16.8013    6.2943 H   0  0  0  0  0  0  0  0  0  0  0  0
   22.2457   16.0811    4.6770 H   0  0  0  0  0  0  0  0  0  0  0  0
   20.3119   18.0666    5.3455 H   0  0  0  0  0  0  0  0  0  0  0  0
   21.9855   18.7572    5.5675 H   0  0  0  0  0  0  0  0  0  0  0  0
   21.8812   19.1969    3.3968 H   0  0  0  0  0  0  0  0  0  0  0  0
   22.2071   17.3859    3.2373 H   0  0  0  0  0  0  0  0  0  0  0  0
   15.1466   15.5752    3.5493 H   0  0  0  0  0  0  0  0  0  0  0  0
   16.0931   14.6517    2.2991 H   0  0  0  0  0  0  0  0  0  0  0  0
   15.2343   11.5372    3.1858 H   0  0  0  0  0  0  0  0  0  0  0  0
   14.3224   12.6526    2.1129 H   0  0  0  0  0  0  0  0  0  0  0  0
   16.1186   12.6745    2.1129 H   0  0  0  0  0  0  0  0  0  0  0  0
  2  1  2  0
  3  2  1  0
  4  3  2  0
  5  4  1  0
  6  1  1  0
  6  5  2  0
  7  4  1  0
  8  7  2  0
  9  7  1  0
 10  9  1  0
 11 10  1  0
 12 11  1  0
 13 12  2  0
 14 12  1  0
 15  1  1  0
 17 16  1  0
 17 15  1  0
  2 18  1  0
  3 19  1  0
  5 20  1  0
  6 21  1  0
  9 22  1  0
  9 23  1  0
 10 24  1  0
 10 25  1  0
 11 26  1  0
 11 27  1  0
 15 28  1  0
 15 29  1  0
 16 30  1  0
 16 31  1  0
 16 32  1  0
M  CHG  1  14  -1
M  END
$$$$
=
     RDKit          3D

 36 36  0  0  0  0  0  0  0  0999 V2000
   17.7450   16.6420    4.4740 N   0  0  0  0  0  0  0  0  0  0  0  0
   18.5830   17.6410    4.9060 C   0  0  0  0  0  0  0  0  0  0  0  0
   18.3240   18.4070    5.8320 O   0  0  0  0  0  0  0  0  0  0  0  0
   16.9370   15.8100    6.6340 C   0  0  0  0  0  0  0  0  0  0  0  0
   16.5650   16.2510    5.2160 C   0  0  2  0  0  0  0  0  0  0  0  0
   15.7790   15.1700    4.4930 C   0  0  0  0  0  0  0  0  0  0  0  0
   16.3900   14.3130    3.5640 C   0  0  0  0  0  0  0  0  0  0  0  0
   15.6530   13.3170    2.9200 C   0  0  0  0  0  0  0  0  0  0  0  0
   14.2980   13.1580    3.1990 C   0  0  0  0  0  0  0  0  0  0  0  0
   13.6770   13.9970    4.1210 C   0  0  0  0  0  0  0  0  0  0  0  0
   14.4110   14.9970    4.7630 C   0  0  0  0  0  0  0  0  0  0  0  0
   19.8890   17.7140    4.1380 C   0  0  0  0  0  0  0  0  0  0  0  0
   21.0990   17.6500    5.0930 C   0  0  2  0  0  0  0  0  0  0  0  0
   22.2170   18.5640    4.5820 C   0  0  0  0  0  0  0  0  0  0  0  0
   21.6260   16.2150    5.2530 C   0  0  0  0  0  0  0  0  0  0  0  0
   20.8090   15.2960    6.1710 C   0  0  0  0  0  0  0  0  0  0  0  0
   19.9620   14.5510    5.6010 O   0  0  0  0  0  0  0  0  0  0  0  0
   21.0900   15.3950    7.3970 O   0  0  0  0  0  1  0  0  0  0  0  0
   17.9634   16.1550    3.5931 H   0  0  0  0  0  0  0  0  0  0  0  0
   16.4067   16.4386    7.3645 H   0  0  0  0  0  0  0  0  0  0  0  0
   16.6493   14.7581    6.7782 H   0  0  0  0  0  0  0  0  0  0  0  0
   18.0223   15.9163    6.7782 H   0  0  0  0  0  0  0  0  0  0  0  0
   15.9113   17.1325    5.2910 H   0  0  0  0  0  0  0  0  0  0  0  0
   17.4611   14.4273    3.3409 H   0  0  0  0  0  0  0  0  0  0  0  0
   16.1441   12.6563    2.1904 H   0  0  0  0  0  0  0  0  0  0  0  0
   13.7194   12.3715    2.6923 H   0  0  0  0  0  0  0  0  0  0  0  0
   12.6071   13.8720    4.3439 H   0  0  0  0  0  0  0  0  0  0  0  0
   13.9123   15.6567    5.4883 H   0  0  0  0  0  0  0  0  0  0  0  0
   19.9405   16.8690    3.4357 H   0  0  0  0  0  0  0  0  0  0  0  0
   19.9223   18.6702    3.5953 H   0  0  0  0  0  0  0  0  0  0  0  0
   20.7628   17.9944    6.0821 H   0  0  0  0  0  0  0  0  0  0  0  0
   22.7525   19.0018    5.4374 H   0  0  0  0  0  0  0  0  0  0  0  0
   22.9192   17.9779    3.9708 H   0  0  0  0  0  0  0  0  0  0  0  0
   21.7822   19.3686    3.9708 H   0  0  0  0  0  0  0  0  0  0  0  0
   21.6548   15.7539    4.2547 H   0  0  0  0  0  0  0  0  0  0  0  0
   22.6111   16.3130    5.7326 H   0  0  0  0  0  0  0  0  0  0  0  0
  2  1  1  0
  3  2  2  0
  5  4  1  0
  5  1  1  0
  6  5  1  0
  7  6  2  0
  8  7  1  0
  9  8  2  0
 10  9  1  0
 11 10  2  0
 11  6  1  0
 12  2  1  0
 13 12  1  0
 14 13  1  0
 15 13  1  0
 16 15  1  0
 17 16  2  0
 18 16  1  0
  1 19  1  0
  4 20  1  0
  4 21  1  0
  4 22  1  0
  5 23  1  1
  7 24  1  0
  8 25  1  0
  9 26  1  0
 10 27  1  0
 11 28  1  0
 12 29  1  0
 12 30  1  0
 13 31  1  1
 14 32  1  0
 14 33  1  0
 14 34  1  0
 15 35  1  0
 15 36  1  0
M  CHG  1  18  -1
M  END
$$$$
=
     RDKit          3D

 37 38  0  0  0  0  0  0  0  0999 V2000
   15.7910   15.3450    6.7020 O   0  0  0  0  0  0  0  0  0  0  0  0
   16.2770   15.8790    5.7070 C   0  0  0  0  0  0  0  0  0  0  0  0
   15.9930   15.5620    4.3930 N   0  0  0  0  0  0  0  0  0  0  0  0
   15.0680   14.6160    4.0010 C   0  0  0  0  0  0  0  0  0  0  0  0
   15.2090   13.3730    3.3510 C   0  0  0  0  0  0  0  0  0  0  0  0
   14.0360   12.7590    3.1620 N   0  0  0  0  0  0  0  0  0  0  0  0
   13.1440   13.5970    3.7340 N   0  0  0  0  0  0  0  0  0  0  0  0
   13.7170   14.7460    4.2080 C   0  0  0  0  0  0  0  0  0  0  0  0
   11.7260   13.2870    3.6970 C   0  0  0  0  0  0  0  0  0  0  0  0
   10.8250   14.3470    4.3270 C   0  0  0  0  0  0  0  0  0  0  0  0
    9.6120   13.7530    5.0410 C   0  0  0  0  0  0  0  0  0  0  0  0
    9.6810   13.7520    6.5700 C   0  0  0  0  0  0  0  0  0  0  0  0
   10.7610   13.3560    7.0840 O   0  0  0  0  0  0  0  0  0  0  0  0
    8.6190   14.1500    7.1290 O   0  0  0  0  0  1  0  0  0  0  0  0
   17.2970   16.9950    5.8380 C   0  0  0  0  0  0  0  0  0  0  0  0
   18.7120   16.4890    5.7680 C   0  0  0  0  0  0  0  0  0  0  0  0
   19.0810   15.2840    6.3760 C   0  0  0  0  0  0  0  0  0  0  0  0
   20.3960   14.8180    6.2770 C   0  0  0  0  0  0  0  0  0  0  0  0
   21.3490   15.5490    5.5660 C   0  0  0  0  0  0  0  0  0  0  0  0
   20.9880   16.7440    4.9470 C   0  0  0  0  0  0  0  0  0  0  0  0
   19.6770   17.2000    5.0480 C   0  0  0  0  0  0  0  0  0  0  0  0
   19.3350   18.3410    4.4320 F   0  0  0  0  0  0  0  0  0  0  0  0
   16.5064   16.0658    3.6558 H   0  0  0  0  0  0  0  0  0  0  0  0
   16.1759   12.9548    3.0346 H   0  0  0  0  0  0  0  0  0  0  0  0
   13.1987   15.6025    4.6638 H   0  0  0  0  0  0  0  0  0  0  0  0
   11.4289   13.1660    2.6448 H   0  0  0  0  0  0  0  0  0  0  0  0
   11.5922   12.3716    4.2921 H   0  0  0  0  0  0  0  0  0  0  0  0
   11.4156   14.9198    5.0572 H   0  0  0  0  0  0  0  0  0  0  0  0
   10.4480   14.9837    3.5131 H   0  0  0  0  0  0  0  0  0  0  0  0
    8.7260   14.3324    4.7424 H   0  0  0  0  0  0  0  0  0  0  0  0
    9.5732   12.6956    4.7403 H   0  0  0  0  0  0  0  0  0  0  0  0
   17.1388   17.7159    5.0224 H   0  0  0  0  0  0  0  0  0  0  0  0
   17.1566   17.4641    6.8230 H   0  0  0  0  0  0  0  0  0  0  0  0
   18.3338   14.7008    6.9341 H   0  0  0  0  0  0  0  0  0  0  0  0
   20.6802   13.8721    6.7612 H   0  0  0  0  0  0  0  0  0  0  0  0
   22.3836   15.1822    5.4944 H   0  0  0  0  0  0  0  0  0  0  0  0
   21.7339   17.3228    4.3825 H   0  0  0  0  0  0  0  0  0  0  0  0
  2  1  2  0
  3  2  1  0
  4  3  1  0
  5  4  1  0
  6  5  2  0
  7  6  1  0
  8  7  1  0
  8  4  2  0
  9  7  1  0
 10  9  1  0
 11 10  1  0
 12 11  1  0
 13 12  2  0
 14 12  1  0
 15  2  1  0
 16 15  1  0
 17 16  2  0
 18 17  1  0
 19 18  2  0
 20 19  1  0
 21 20  2  0
 21 16  1  0
 22 21  1  0
  3 23  1  0
  5 24  1  0
  8 25  1  0
  9 26  1  0
  9 27  1  0
 10 28  1  0
 10 29  1  0
 11 30  1  0
 11 31  1  0
 15 32  1  0
 15 33  1  0
 17 34  1  0
 18 35  1  0
 19 36  1  0
 20 37  1  0
M  CHG  1  14  -1
M  END
$$$$
=
     RDKit          3D

 29 30  0  0  0  0  0  0  0  0999 V2000
   18.3490   15.9550    4.5410 C   0  0  1  0  0  0  0  0  0  0  0  0
   18.6010   16.7270    3.2250 C   0  0  0  0  0  0  0  0  0  0  0  0
   19.8940   17.5120    3.4560 C   0  0  0  0  0  0  0  0  0  0  0  0
   20.2720   17.2280    4.9250 C   0  0  2  0  0  0  0  0  0  0  0  0
   19.7630   15.7820    5.1670 C   0  0  0  0  0  0  0  0  0  0  0  0
   19.7230   15.3180    6.6420 C   0  0  0  0  0  0  0  0  0  0  0  0
   20.6300   14.7370    4.4100 C   0  0  0  0  0  0  0  0  0  0  0  0
   19.4870   18.2430    5.7290 C   0  0  0  0  0  0  0  0  0  0  0  0
   19.9160   19.3380    6.0810 O   0  0  0  0  0  0  0  0  0  0  0  0
   18.1770   17.9670    5.9630 O   0  0  0  0  0  0  0  0  0  0  0  0
   17.5650   16.8610    5.4870 C   0  0  0  0  0  0  0  0  0  0  0  0
   16.4070   16.6200    5.8220 O   0  0  0  0  0  0  0  0  0  0  0  0
   21.7570   17.4280    5.2440 C   0  0  0  0  0  0  0  0  0  0  0  0
   22.1230   17.0930    6.4040 O   0  0  0  0  0  0  0  0  0  0  0  0
   22.4310   17.9810    4.3300 O   0  0  0  0  0  1  0  0  0  0  0  0
   16.0330   14.7690    3.1650 Br  0  0  0  0  0  0  0  0  0  0  0  0
   17.6050   14.6280    4.3290 C   0  0  0  0  0  0  0  0  0  0  0  0
   18.7206   16.0270    2.3849 H   0  0  0  0  0  0  0  0  0  0  0  0
   17.7600   17.3892    2.9716 H   0  0  0  0  0  0  0  0  0  0  0  0
   20.6860   17.1619    2.7777 H   0  0  0  0  0  0  0  0  0  0  0  0
   19.7670   18.5871    3.2609 H   0  0  0  0  0  0  0  0  0  0  0  0
   19.7985   16.1933    7.3039 H   0  0  0  0  0  0  0  0  0  0  0  0
   18.7762   14.7925    6.8355 H   0  0  0  0  0  0  0  0  0  0  0  0
   20.5659   14.6382    6.8355 H   0  0  0  0  0  0  0  0  0  0  0  0
   21.1569   14.1019    5.1373 H   0  0  0  0  0  0  0  0  0  0  0  0
   19.9820   14.1114    3.7785 H   0  0  0  0  0  0  0  0  0  0  0  0
   21.3645   15.2583    3.7785 H   0  0  0  0  0  0  0  0  0  0  0  0
   17.2759   14.2558    5.3104 H   0  0  0  0  0  0  0  0  0  0  0  0
   18.3090   13.9456    3.8302 H   0  0  0  0  0  0  0  0  0  0  0  0
  2  1  1  0
  3  2  1  0
  4  3  1  0
  5  1  1  0
  5  4  1  0
  6  5  1  0
  7  5  1  0
  8  4  1  0
  9  8  2  0
 10  8  1  0
 11  1  1  0
 11 10  1  0
 12 11  2  0
  4 13  1  6
 14 13  2  0
 15 13  1  0
 17 16  1  0
  1 17  1  6
  2 18  1  0
  2 19  1  0
  3 20  1  0
  3 21  1  0
  6 22  1  0
  6 23  1  0
  6 24  1  0
  7 25  1  0
  7 26  1  0
  7 27  1  0
 17 28  1  0
 17 29  1  0
M  CHG  1  15  -1
M  END
$$$$
=
     RDKit          3D

 19 20  0  0  0  0  0  0  0  0999 V2000
   18.1610   16.1470    4.2880 C   0  0  0  0  0  0  0  0  0  0  0  0
   16.8830   15.5790    4.4210 C   0  0  0  0  0  0  0  0  0  0  0  0
   16.1450   16.2960    5.2910 N   0  0  0  0  0  0  0  0  0  0  0  0
   16.9680   17.3030    5.7610 O   0  0  0  0  0  0  0  0  0  0  0  0
   18.1840   17.2050    5.1650 C   0  0  0  0  0  0  0  0  0  0  0  0
   16.2550   14.2890    3.7820 C   0  0  0  0  0  0  0  0  0  0  0  0
   16.9990   13.3440    3.0960 C   0  0  0  0  0  0  0  0  0  0  0  0
   16.2970   12.2680    2.5760 N   0  0  0  0  0  0  0  0  0  0  0  0
   15.0260   12.4210    2.8770 C   0  0  0  0  0  0  0  0  0  0  0  0
   14.6130   13.8310    3.7550 S   0  0  0  0  0  0  0  0  0  0  0  0
   20.0960   14.8550    3.8510 O   0  0  0  0  0  1  0  0  0  0  0  0
   19.3540   15.7770    3.3960 C   0  0  0  0  0  0  0  0  0  0  0  0
   19.5340   16.4490    2.3430 O   0  0  0  0  0  0  0  0  0  0  0  0
   19.1980   18.2040    5.5440 C   0  0  0  0  0  0  0  0  0  0  0  0
   18.6400   19.2130    6.2790 F   0  0  0  0  0  0  0  0  0  0  0  0
   19.7090   18.8170    4.4330 F   0  0  0  0  0  0  0  0  0  0  0  0
   18.0874   13.4418    2.9706 H   0  0  0  0  0  0  0  0  0  0  0  0
   14.2679   11.6814    2.5800 H   0  0  0  0  0  0  0  0  0  0  0  0
   19.9691   17.6623    6.1114 H   0  0  0  0  0  0  0  0  0  0  0  0
  2  1  1  0
  3  2  2  0
  4  3  1  0
  5  1  2  0
  5  4  1  0
  6  2  1  0
  7  6  2  0
  8  7  1  0
  9  8  2  0
 10  9  1  0
 10  6  1  0
 12 11  1  0
 12  1  1  0
 13 12  2  0
 14  5  1  0
 15 14  1  0
 16 14  1  0
  7 17  1  0
  9 18  1  0
 14 19  1  0
M  CHG  1  11  -1
M  END
$$$$
=
     RDKit          3D

 44 45  0  0  0  0  0  0  0  0999 V2000
   20.8110   15.6980    7.0540 O   0  0  0  0  0  0  0  0  0  0  0  0
   20.6370   16.0650    5.8990 C   0  0  0  0  0  0  0  0  0  0  0  0
   19.4320   15.9870    5.2520 N   0  0  0  0  0  0  0  0  0  0  0  0
   19.1740   16.4050    3.8870 C   0  0  0  0  0  0  0  0  0  0  0  0
   17.6580   16.3910    3.7760 C   0  0  0  0  0  0  0  0  0  0  0  0
   17.2600   15.2430    4.7130 C   0  0  1  0  0  0  0  0  0  0  0  0
   18.2560   15.3970    5.8650 C   0  0  0  0  0  0  0  0  0  0  0  0
   15.8070   15.2930    5.1890 C   0  0  0  0  0  0  0  0  0  0  0  0
   14.8950   14.4030    4.3840 C   0  0  0  0  0  0  0  0  0  0  0  0
   15.4180   13.4110    3.5460 C   0  0  0  0  0  0  0  0  0  0  0  0
   14.5670   12.5810    2.8170 C   0  0  0  0  0  0  0  0  0  0  0  0
   13.1830   12.7360    2.9210 C   0  0  0  0  0  0  0  0  0  0  0  0
   12.6270   13.7210    3.7510 C   0  0  0  0  0  0  0  0  0  0  0  0
   13.5020   14.5510    4.4740 C   0  0  0  0  0  0  0  0  0  0  0  0
   11.1230   13.8850    3.8690 C   0  0  0  0  0  0  0  0  0  0  0  0
   10.6930   14.6720    4.7700 O   0  0  0  0  0  0  0  0  0  0  0  0
   10.4040   13.2240    3.0530 O   0  0  0  0  0  1  0  0  0  0  0  0
   21.5970   16.5990    5.1010 O   0  0  0  0  0  0  0  0  0  0  0  0
   21.9620   17.9970    5.2060 C   0  0  0  0  0  0  0  0  0  0  0  0
   23.2850   18.1730    5.9600 C   0  0  0  0  0  0  0  0  0  0  0  0
   20.8310   18.8240    5.8310 C   0  0  0  0  0  0  0  0  0  0  0  0
   22.1590   18.4570    3.7540 C   0  0  0  0  0  0  0  0  0  0  0  0
   19.5696   17.4154    3.7065 H   0  0  0  0  0  0  0  0  0  0  0  0
   19.6579   15.7513    3.1464 H   0  0  0  0  0  0  0  0  0  0  0  0
   17.2271   17.3453    4.1131 H   0  0  0  0  0  0  0  0  0  0  0  0
   17.2977   16.2572    2.7453 H   0  0  0  0  0  0  0  0  0  0  0  0
   17.3040   14.2655    4.2105 H   0  0  0  0  0  0  0  0  0  0  0  0
   17.8501   16.0590    6.6441 H   0  0  0  0  0  0  0  0  0  0  0  0
   18.4772   14.4387    6.3577 H   0  0  0  0  0  0  0  0  0  0  0  0
   15.7710   14.9729    6.2408 H   0  0  0  0  0  0  0  0  0  0  0  0
   15.4540   16.3272    5.0635 H   0  0  0  0  0  0  0  0  0  0  0  0
   16.5076   13.2854    3.4620 H   0  0  0  0  0  0  0  0  0  0  0  0
   14.9858   11.8043    2.1602 H   0  0  0  0  0  0  0  0  0  0  0  0
   12.5190   12.0760    2.3436 H   0  0  0  0  0  0  0  0  0  0  0  0
   13.0855   15.3339    5.1248 H   0  0  0  0  0  0  0  0  0  0  0  0
   23.0958   18.1478    7.0433 H   0  0  0  0  0  0  0  0  0  0  0  0
   23.9727   17.3584    5.6889 H   0  0  0  0  0  0  0  0  0  0  0  0
   23.7359   19.1390    5.6889 H   0  0  0  0  0  0  0  0  0  0  0  0
   20.9017   18.7723    6.9275 H   0  0  0  0  0  0  0  0  0  0  0  0
   20.9203   19.8713    5.5068 H   0  0  0  0  0  0  0  0  0  0  0  0
   19.8600   18.4213    5.5068 H   0  0  0  0  0  0  0  0  0  0  0  0
   22.5920   19.4681    3.7453 H   0  0  0  0  0  0  0  0  0  0  0  0
   22.8387   17.7626    3.2384 H   0  0  0  0  0  0  0  0  0  0  0  0
   21.1874   18.4697    3.2384 H   0  0  0  0  0  0  0  0  0  0  0  0
  2  1  2  0
  3  2  1  0
  4  3  1  0
  5  4  1  0
  6  5  1  0
  7  6  1  0
  7  3  1  0
  8  6  1  0
  9  8  1  0
 10  9  2  0
 11 10  1  0
 12 11  2  0
 13 12  1  0
 14 13  2  0
 14  9  1  0
 15 13  1  0
 16 15  2  0
 17 15  1  0
 18  2  1  0
 19 18  1  0
 20 19  1  0
 21 19  1  0
 22 19  1  0
  4 23  1  0
  4 24  1  0
  5 25  1  0
  5 26  1  0
  6 27  1  6
  7 28  1  0
  7 29  1  0
  8 30  1  0
  8 31  1  0
 10 32  1  0
 11 33  1  0
 12 34  1  0
 14 35  1  0
 20 36  1  0
 20 37  1  0
 20 38  1  0
 21 39  1  0
 21 40  1  0
 21 41  1  0
 22 42  1  0
 22 43  1  0
 22 44  1  0
M  CHG  1  17  -1
M  END
$$$$
=
     RDKit          3D

 24 25  0  0  0  0  0  0  0  0999 V2000
   19.3590   14.1170    4.2050 F   0  0  0  0  0  0  0  0  0  0  0  0
   19.4380   15.3730    4.6780 C   0  0  0  0  0  0  0  0  0  0  0  0
   18.2630   16.0920    4.9480 C   0  0  0  0  0  0  0  0  0  0  0  0
   18.4260   17.4020    5.4260 C   0  0  0  0  0  0  0  0  0  0  0  0
   17.3450   18.1460    5.7180 F   0  0  0  0  0  0  0  0  0  0  0  0
   19.6900   17.9610    5.6230 C   0  0  0  0  0  0  0  0  0  0  0  0
   20.8370   17.2280    5.3490 C   0  0  0  0  0  0  0  0  0  0  0  0
   20.7040   15.9300    4.8750 C   0  0  0  0  0  0  0  0  0  0  0  0
   21.7830   15.1860    4.5910 F   0  0  0  0  0  0  0  0  0  0  0  0
   19.7700   19.2170    6.0900 F   0  0  0  0  0  0  0  0  0  0  0  0
   16.9270   15.5030    4.7390 C   0  0  0  0  0  0  0  0  0  0  0  0
   16.5730   14.9160    3.5110 C   0  0  0  0  0  0  0  0  0  0  0  0
   15.3070   14.3570    3.3100 C   0  0  0  0  0  0  0  0  0  0  0  0
   14.3670   14.3730    4.3370 C   0  0  0  0  0  0  0  0  0  0  0  0
   14.6940   14.9470    5.5630 C   0  0  0  0  0  0  0  0  0  0  0  0
   15.9600   15.5060    5.7600 C   0  0  0  0  0  0  0  0  0  0  0  0
   22.1690   17.8170    5.5570 C   0  0  0  0  0  0  0  0  0  0  0  0
   22.8430   17.3450    6.5210 O   0  0  0  0  0  0  0  0  0  0  0  0
   22.5050   18.7340    4.7520 O   0  0  0  0  0  1  0  0  0  0  0  0
   17.3069   14.8962    2.6919 H   0  0  0  0  0  0  0  0  0  0  0  0
   15.0537   13.9044    2.3400 H   0  0  0  0  0  0  0  0  0  0  0  0
   13.3705   13.9342    4.1807 H   0  0  0  0  0  0  0  0  0  0  0  0
   13.9549   14.9605    6.3776 H   0  0  0  0  0  0  0  0  0  0  0  0
   16.2047   15.9572    6.7329 H   0  0  0  0  0  0  0  0  0  0  0  0
  2  1  1  0
  3  2  2  0
  4  3  1  0
  5  4  1  0
  6  4  2  0
  7  6  1  0
  8  2  1  0
  8  7  2  0
  9  8  1  0
 10  6  1  0
 11  3  1  0
 12 11  2  0
 13 12  1  0
 14 13  2  0
 15 14  1  0
 16 15  2  0
 16 11  1  0
 17  7  1  0
 18 17  2  0
 19 17  1  0
 12 20  1  0
 13 21  1  0
 14 22  1  0
 15 23  1  0
 16 24  1  0
M  CHG  1  19  -1
M  END
$$$$
=
     RDKit          3D

 30 31  0  0  0  0  0  0  0  0999 V2000
   19.8770   17.1520    5.0190 C   0  0  1  0  0  0  0  0  0  0  0  0
   18.7970   16.3470    5.6900 C   0  0  2  0  0  0  0  0  0  0  0  0
   20.1490   15.7120    5.3870 C   0  0  2  0  0  0  0  0  0  0  0  0
   17.5220   15.8830    5.0290 C   0  0  0  0  0  0  0  0  0  0  0  0
   17.4820   14.7720    4.1680 C   0  0  0  0  0  0  0  0  0  0  0  0
   16.2880   14.3410    3.5830 C   0  0  0  0  0  0  0  0  0  0  0  0
   15.1080   15.0120    3.8710 C   0  0  0  0  0  0  0  0  0  0  0  0
   15.1020   16.0960    4.7380 C   0  0  0  0  0  0  0  0  0  0  0  0
   16.2990   16.5200    5.3160 C   0  0  0  0  0  0  0  0  0  0  0  0
   13.9590   14.6010    3.3170 F   0  0  0  0  0  0  0  0  0  0  0  0
   19.8690   17.4280    3.2380 S   0  0  0  0  0  6  0  0  0  0  0  0
   18.8360   18.3740    2.8670 O   0  0  0  0  0  0  0  0  0  0  0  0
   19.9240   16.1180    2.6160 O   0  0  0  0  0  0  0  0  0  0  0  0
   22.0770   18.6950    4.2350 C   0  0  0  0  0  0  0  0  0  0  0  0
   21.4470   18.1990    2.9480 C   0  0  0  0  0  0  0  0  0  0  0  0
   21.0170   15.4250    6.5370 C   0  0  0  0  0  0  0  0  0  0  0  0
   20.8330   14.3170    7.1270 O   0  0  0  0  0  0  0  0  0  0  0  0
   21.8680   16.3050    6.8780 O   0  0  0  0  0  1  0  0  0  0  0  0
   20.2823   18.1499    5.2424 H   0  0  0  0  0  0  0  0  0  0  0  0
   18.1714   16.5027    6.5813 H   0  0  0  0  0  0  0  0  0  0  0  0
   20.5062   14.8311    4.8334 H   0  0  0  0  0  0  0  0  0  0  0  0
   18.4132   14.2288    3.9495 H   0  0  0  0  0  0  0  0  0  0  0  0
   16.2838   13.4781    2.9008 H   0  0  0  0  0  0  0  0  0  0  0  0
   14.1607   16.6168    4.9676 H   0  0  0  0  0  0  0  0  0  0  0  0
   16.2873   17.3717    6.0121 H   0  0  0  0  0  0  0  0  0  0  0  0
   21.5377   18.2704    5.0946 H   0  0  0  0  0  0  0  0  0  0  0  0
   23.1307   18.3815    4.2720 H   0  0  0  0  0  0  0  0  0  0  0  0
   22.0196   19.7929    4.2720 H   0  0  0  0  0  0  0  0  0  0  0  0
   22.1211   17.4657    2.4813 H   0  0  0  0  0  0  0  0  0  0  0  0
   21.2880   19.0655    2.2893 H   0  0  0  0  0  0  0  0  0  0  0  0
  2  1  1  0
  3  2  1  0
  3  1  1  0
  4  2  1  0
  5  4  2  0
  6  5  1  0
  7  6  2  0
  8  7  1  0
  9  8  2  0
  9  4  1  0
 10  7  1  0
 11  1  1  0
 12 11  2  0
 13 11  2  0
 15 11  1  0
 15 14  1  0
 16  3  1  0
 17 16  2  0
 18 16  1  0
  1 19  1  1
  2 20  1  1
  3 21  1  6
  5 22  1  0
  6 23  1  0
  8 24  1  0
  9 25  1  0
 14 26  1  0
 14 27  1  0
 14 28  1  0
 15 29  1  0
 15 30  1  0
M  CHG  1  18  -1
M  END
$$$$
=
     RDKit          3D

 40 42  0  0  0  0  0  0  0  0999 V2000
   13.0200   13.6160    3.3070 C   0  0  0  0  0  0  0  0  0  0  0  0
   14.1860   13.0200    2.8210 C   0  0  0  0  0  0  0  0  0  0  0  0
   15.4330   13.5810    3.1120 C   0  0  0  0  0  0  0  0  0  0  0  0
   15.5180   14.7380    3.8880 C   0  0  0  0  0  0  0  0  0  0  0  0
   14.3520   15.3350    4.3740 C   0  0  0  0  0  0  0  0  0  0  0  0
   13.1040   14.7740    4.0850 C   0  0  0  0  0  0  0  0  0  0  0  0
   10.6720   12.5600    2.7610 C   0  0  0  0  0  0  0  0  0  0  0  0
   11.7440   13.0420    3.0110 C   0  0  0  0  0  0  0  0  0  0  0  0
    6.8780   10.8500    1.8760 C   0  0  0  0  0  0  0  0  0  0  0  0
    7.0480   11.6990    2.9830 C   0  0  0  0  0  0  0  0  0  0  0  0
    8.2940   12.2620    3.2760 C   0  0  0  0  0  0  0  0  0  0  0  0
    9.3940   11.9840    2.4640 C   0  0  0  0  0  0  0  0  0  0  0  0
    9.2450   11.1440    1.3600 C   0  0  0  0  0  0  0  0  0  0  0  0
    7.9980   10.5820    1.0700 C   0  0  0  0  0  0  0  0  0  0  0  0
    5.4010    9.6530    0.4390 O   0  0  0  0  0  1  0  0  0  0  0  0
    5.5260   10.2400    1.5600 C   0  0  0  0  0  0  0  0  0  0  0  0
    4.6150   10.3580    2.4410 O   0  0  0  0  0  0  0  0  0  0  0  0
   16.7940   15.3120    4.1860 C   0  0  0  0  0  0  0  0  0  0  0  0
   17.8660   15.7940    4.4360 C   0  0  0  0  0  0  0  0  0  0  0  0
   19.1440   16.3680    4.7340 C   0  0  0  0  0  0  0  0  0  0  0  0
   20.2560   15.5460    4.9170 C   0  0  0  0  0  0  0  0  0  0  0  0
   21.5030   16.1080    5.2080 C   0  0  0  0  0  0  0  0  0  0  0  0
   21.6610   17.5000    5.3210 C   0  0  0  0  0  0  0  0  0  0  0  0
   20.5300   18.3120    5.1340 C   0  0  0  0  0  0  0  0  0  0  0  0
   19.2810   17.7530    4.8430 C   0  0  0  0  0  0  0  0  0  0  0  0
   23.0140   18.1090    5.6370 C   0  0  0  0  0  0  0  0  0  0  0  0
   23.5210   17.8390    6.7730 O   0  0  0  0  0  0  0  0  0  0  0  0
   23.5430   18.8450    4.7450 O   0  0  0  0  0  1  0  0  0  0  0  0
   14.1230   12.1083    2.2087 H   0  0  0  0  0  0  0  0  0  0  0  0
   16.3497   13.1093    2.7283 H   0  0  0  0  0  0  0  0  0  0  0  0
   14.4157   16.2476    4.9848 H   0  0  0  0  0  0  0  0  0  0  0  0
   12.1875   15.2446    4.4704 H   0  0  0  0  0  0  0  0  0  0  0  0
    6.1870   11.9243    3.6294 H   0  0  0  0  0  0  0  0  0  0  0  0
    8.4070   12.9243    4.1470 H   0  0  0  0  0  0  0  0  0  0  0  0
   10.1098   10.9236    0.7169 H   0  0  0  0  0  0  0  0  0  0  0  0
    7.8918    9.9201    0.1979 H   0  0  0  0  0  0  0  0  0  0  0  0
   20.1519   14.4542    4.8323 H   0  0  0  0  0  0  0  0  0  0  0  0
   22.3734   15.4507    5.3506 H   0  0  0  0  0  0  0  0  0  0  0  0
   20.6280   19.4044    5.2177 H   0  0  0  0  0  0  0  0  0  0  0  0
   18.4066   18.4050    4.7000 H   0  0  0  0  0  0  0  0  0  0  0  0
  2  1  2  0
  3  2  1  0
  4  3  2  0
  5  4  1  0
  6  5  2  0
  6  1  1  0
  8  7  3  0
  8  1  1  0
 10  9  2  0
 11 10  1  0
 12 11  2  0
 12  7  1  0
 13 12  1  0
 14  9  1  0
 14 13  2  0
 16 15  1  0
 16  9  1  0
 17 16  2  0
 18  4  1  0
 19 18  3  0
 20 19  1  0
 21 20  2  0
 22 21  1  0
 23 22  2  0
 24 23  1  0
 25 24  2  0
 25 20  1  0
 26 23  1  0
 27 26  2  0
 28 26  1  0
  2 29  1  0
  3 30  1  0
  5 31  1  0
  6 32  1  0
 10 33  1  0
 11 34  1  0
 13 35  1  0
 14 36  1  0
 21 37  1  0
 22 38  1  0
 24 39  1  0
 25 40  1  0
M  CHG  2  15  -1  28  -1
M  END
$$$$
=
     RDKit          3D

 53 55  0  0  0  0  0  0  0  0999 V2000
   14.1400   14.1890    3.7780 C   0  0  0  0  0  0  0  0  0  0  0  0
   14.0080   15.4570    4.3450 C   0  0  0  0  0  0  0  0  0  0  0  0
   15.1570   16.1810    4.6590 C   0  0  0  0  0  0  0  0  0  0  0  0
   16.4290   15.6600    4.3820 C   0  0  0  0  0  0  0  0  0  0  0  0
   16.5390   14.4380    3.7150 C   0  0  0  0  0  0  0  0  0  0  0  0
   15.3940   13.6950    3.4130 C   0  0  0  0  0  0  0  0  0  0  0  0
   17.5220   16.3900    4.8750 N   0  0  0  0  0  0  0  0  0  0  0  0
   18.6460   16.8230    4.2010 C   0  0  0  0  0  0  0  0  0  0  0  0
   18.7950   16.8170    2.9800 O   0  0  0  0  0  0  0  0  0  0  0  0
   19.7510   17.3100    5.1600 C   0  0  2  0  0  0  0  0  0  0  0  0
   20.3310   18.6650    4.7070 C   0  0  0  0  0  0  0  0  0  0  0  0
   21.5700   18.4990    3.8350 C   0  0  0  0  0  0  0  0  0  0  0  0
   22.6950   17.7870    4.5840 C   0  0  0  0  0  0  0  0  0  0  0  0
   22.1960   16.8220    5.6630 C   0  0  0  0  0  0  0  0  0  0  0  0
   20.8390   16.2120    5.3030 C   0  0  1  0  0  0  0  0  0  0  0  0
   20.4850   15.0970    6.3090 C   0  0  0  0  0  0  0  0  0  0  0  0
   19.5970   14.2820    5.9420 O   0  0  0  0  0  0  0  0  0  0  0  0
   21.0780   15.1630    7.4280 O   0  0  0  0  0  1  0  0  0  0  0  0
   12.7110   13.1380    3.6460 S   0  0  0  0  0  6  0  0  0  0  0  0
   12.7140   12.5120    2.3410 O   0  0  0  0  0  0  0  0  0  0  0  0
   12.6330   12.3400    4.8540 O   0  0  0  0  0  0  0  0  0  0  0  0
   11.4190   14.2500    3.7350 N   0  0  0  0  0  0  0  0  0  0  0  0
    7.8340   12.3740    4.9120 C   0  0  0  0  0  0  0  0  0  0  0  0
    8.5500   13.1460    5.8300 C   0  0  0  0  0  0  0  0  0  0  0  0
    9.7140   13.8120    5.4360 C   0  0  0  0  0  0  0  0  0  0  0  0
   10.1420   13.7310    4.1120 C   0  0  0  0  0  0  0  0  0  0  0  0
    9.3930   13.0120    3.1780 C   0  0  0  0  0  0  0  0  0  0  0  0
    8.2420   12.3290    3.5790 C   0  0  0  0  0  0  0  0  0  0  0  0
    7.0670   10.6350    6.3010 C   0  0  0  0  0  0  0  0  0  0  0  0
    6.7450   11.7120    5.4130 O   0  0  0  0  0  0  0  0  0  0  0  0
   13.0115   15.8793    4.5414 H   0  0  0  0  0  0  0  0  0  0  0  0
   15.0649   17.1713    5.1289 H   0  0  0  0  0  0  0  0  0  0  0  0
   17.5303   14.0587    3.4262 H   0  0  0  0  0  0  0  0  0  0  0  0
   15.4801   12.7298    2.8925 H   0  0  0  0  0  0  0  0  0  0  0  0
   17.4795   16.6356    5.8744 H   0  0  0  0  0  0  0  0  0  0  0  0
   19.3156   17.4844    6.1550 H   0  0  0  0  0  0  0  0  0  0  0  0
   19.5635   19.2045    4.1327 H   0  0  0  0  0  0  0  0  0  0  0  0
   20.6246   19.2244    5.6075 H   0  0  0  0  0  0  0  0  0  0  0  0
   21.3039   17.9086    2.9458 H   0  0  0  0  0  0  0  0  0  0  0  0
   21.9265   19.5000    3.5505 H   0  0  0  0  0  0  0  0  0  0  0  0
   23.2915   17.2172    3.8563 H   0  0  0  0  0  0  0  0  0  0  0  0
   23.2864   18.5627    5.0925 H   0  0  0  0  0  0  0  0  0  0  0  0
   22.9298   16.0111    5.7812 H   0  0  0  0  0  0  0  0  0  0  0  0
   22.0764   17.3895    6.5977 H   0  0  0  0  0  0  0  0  0  0  0  0
   20.8935   15.7350    4.3133 H   0  0  0  0  0  0  0  0  0  0  0  0
   11.5537   15.2496    3.5265 H   0  0  0  0  0  0  0  0  0  0  0  0
    8.1960   13.2302    6.8681 H   0  0  0  0  0  0  0  0  0  0  0  0
   10.2899   14.3976    6.1678 H   0  0  0  0  0  0  0  0  0  0  0  0
    9.7097   12.9834    2.1250 H   0  0  0  0  0  0  0  0  0  0  0  0
    7.6579   11.7561    2.8438 H   0  0  0  0  0  0  0  0  0  0  0  0
    6.9653   10.9753    7.3421 H   0  0  0  0  0  0  0  0  0  0  0  0
    6.3810    9.7941    6.1214 H   0  0  0  0  0  0  0  0  0  0  0  0
    8.1020   10.3086    6.1214 H   0  0  0  0  0  0  0  0  0  0  0  0
  2  1  2  0
  3  2  1  0
  4  3  2  0
  5  4  1  0
  6  1  1  0
  6  5  2  0
  7  4  1  0
  8  7  1  0
  9  8  2  0
 10  8  1  0
 11 10  1  0
 12 11  1  0
 13 12  1  0
 14 13  1  0
 15 10  1  0
 15 14  1  0
 16 15  1  0
 17 16  2  0
 18 16  1  0
 19  1  1  0
 20 19  2  0
 21 19  2  0
 22 19  1  0
 24 23  2  0
 25 24  1  0
 26 25  2  0
 26 22  1  0
 27 26  1  0
 28 27  2  0
 28 23  1  0
 30 29  1  0
 30 23  1  0
  2 31  1  0
  3 32  1  0
  5 33  1  0
  6 34  1  0
  7 35  1  0
 10 36  1  1
 11 37  1  0
 11 38  1  0
 12 39  1  0
 12 40  1  0
 13 41  1  0
 13 42  1  0
 14 43  1  0
 14 44  1  0
 15 45  1  6
 22 46  1  0
 24 47  1  0
 25 48  1  0
 27 49  1  0
 28 50  1  0
 29 51  1  0
 29 52  1  0
 29 53  1  0
M  CHG  1  18  -1
M  END
$$$$
=
     RDKit          3D

 29 30  0  0  0  0  0  0  0  0999 V2000
   20.4260   16.4550    5.0580 C   0  0  1  0  0  0  0  0  0  0  0  0
   20.4200   15.7390    6.4390 C   0  0  0  0  0  0  0  0  0  0  0  0
   19.7240   15.6350    3.9350 C   0  0  2  0  0  0  0  0  0  0  0  0
   19.5980   16.6340    2.7580 C   0  0  0  0  0  0  0  0  0  0  0  0
   19.3360   17.9790    3.4600 C   0  0  0  0  0  0  0  0  0  0  0  0
   19.3800   17.6030    4.9560 C   0  0  2  0  0  0  0  0  0  0  0  0
   19.5100   18.7650    5.9100 C   0  0  0  0  0  0  0  0  0  0  0  0
   18.0900   16.7840    5.1220 C   0  0  0  0  0  0  0  0  0  0  0  0
   17.0580   17.1490    5.6680 O   0  0  0  0  0  0  0  0  0  0  0  0
   18.2850   15.4240    4.4720 C   0  0  0  0  0  0  0  0  0  0  0  0
   21.9130   16.8110    4.8140 C   0  0  0  0  0  0  0  0  0  0  0  0
   23.1800   17.9980    6.4110 O   0  0  0  0  0  1  0  0  0  0  0  0
   22.6460   18.0730    5.2710 C   0  0  0  0  0  0  0  0  0  0  0  0
   22.6490   19.0210    4.4360 O   0  0  0  0  0  0  0  0  0  0  0  0
   20.4263   16.4909    7.2419 H   0  0  0  0  0  0  0  0  0  0  0  0
   19.5166   15.1174    6.5258 H   0  0  0  0  0  0  0  0  0  0  0  0
   21.3128   15.1024    6.5258 H   0  0  0  0  0  0  0  0  0  0  0  0
   20.2295   14.6985    3.6569 H   0  0  0  0  0  0  0  0  0  0  0  0
   20.5277   16.6705    2.1712 H   0  0  0  0  0  0  0  0  0  0  0  0
   18.8070   16.3602    2.0444 H   0  0  0  0  0  0  0  0  0  0  0  0
   20.1176   18.7127    3.2134 H   0  0  0  0  0  0  0  0  0  0  0  0
   18.3880   18.4484    3.1583 H   0  0  0  0  0  0  0  0  0  0  0  0
   19.4687   18.3958    6.9454 H   0  0  0  0  0  0  0  0  0  0  0  0
   20.4706   19.2733    5.7400 H   0  0  0  0  0  0  0  0  0  0  0  0
   18.6855   19.4730    5.7400 H   0  0  0  0  0  0  0  0  0  0  0  0
   17.5622   15.2432    3.6627 H   0  0  0  0  0  0  0  0  0  0  0  0
   18.1416   14.5537    5.1293 H   0  0  0  0  0  0  0  0  0  0  0  0
   22.4796   15.9786    5.2569 H   0  0  0  0  0  0  0  0  0  0  0  0
   21.8702   17.0140    3.7337 H   0  0  0  0  0  0  0  0  0  0  0  0
  1  2  1  1
  3  1  1  0
  4  3  1  0
  5  4  1  0
  6  5  1  0
  6  1  1  0
  6  7  1  1
  8  6  1  0
  9  8  2  0
 10  3  1  0
 10  8  1  0
 11  1  1  0
 13 11  1  0
 13 12  1  0
 14 13  2  0
  2 15  1  0
  2 16  1  0
  2 17  1  0
  3 18  1  6
  4 19  1  0
  4 20  1  0
  5 21  1  0
  5 22  1  0
  7 23  1  0
  7 24  1  0
  7 25  1  0
 10 26  1  0
 10 27  1  0
 11 28  1  0
 11 29  1  0
M  CHG  1  12  -1
M  END
$$$$
=
     RDKit          3D

 33 35  0  0  0  0  0  0  0  0999 V2000
   16.2670   14.9850    5.2300 C   0  0  1  0  0  0  0  0  0  0  0  0
   14.8750   15.5200    4.8640 C   0  0  0  0  0  0  0  0  0  0  0  0
   14.0420   14.4790    4.1440 C   0  0  0  0  0  0  0  0  0  0  0  0
   12.6480   14.6110    4.0930 C   0  0  0  0  0  0  0  0  0  0  0  0
   11.8740   13.6720    3.4120 C   0  0  0  0  0  0  0  0  0  0  0  0
   12.4870   12.5970    2.7710 C   0  0  0  0  0  0  0  0  0  0  0  0
   13.8750   12.4640    2.8040 C   0  0  0  0  0  0  0  0  0  0  0  0
   14.6650   13.4080    3.4770 C   0  0  0  0  0  0  0  0  0  0  0  0
   16.1720   13.2370    3.5260 C   0  0  0  0  0  0  0  0  0  0  0  0
   16.8940   14.4630    3.9510 N   0  0  0  0  0  0  0  0  0  0  0  0
   17.0560   17.2300    5.5550 O   0  0  0  0  0  1  0  0  0  0  0  0
   17.0150   16.0650    6.0470 C   0  0  0  0  0  0  0  0  0  0  0  0
   17.4450   15.6580    7.1670 O   0  0  0  0  0  0  0  0  0  0  0  0
   18.5880   14.2970    3.9720 S   0  0  0  0  0  6  0  0  0  0  0  0
   18.9890   13.4870    2.8380 O   0  0  0  0  0  0  0  0  0  0  0  0
   19.1000   14.0930    5.3050 O   0  0  0  0  0  0  0  0  0  0  0  0
   19.2630   15.9100    3.5420 C   0  0  0  0  0  0  0  0  0  0  0  0
   18.9670   16.7900    2.5170 C   0  0  0  0  0  0  0  0  0  0  0  0
   19.7630   17.9700    2.5690 C   0  0  0  0  0  0  0  0  0  0  0  0
   20.6420   17.9500    3.6290 C   0  0  0  0  0  0  0  0  0  0  0  0
   20.5050   16.5150    4.5540 S   0  0  0  0  0  0  0  0  0  0  0  0
   16.2790   14.1210    5.9107 H   0  0  0  0  0  0  0  0  0  0  0  0
   14.3541   15.8168    5.7863 H   0  0  0  0  0  0  0  0  0  0  0  0
   15.0060   16.3788    4.1892 H   0  0  0  0  0  0  0  0  0  0  0  0
   12.1610   15.4609    4.5934 H   0  0  0  0  0  0  0  0  0  0  0  0
   10.7797   13.7798    3.3807 H   0  0  0  0  0  0  0  0  0  0  0  0
   11.8759   11.8531    2.2388 H   0  0  0  0  0  0  0  0  0  0  0  0
   14.3539   11.6125    2.2985 H   0  0  0  0  0  0  0  0  0  0  0  0
   16.4079   12.4304    4.2357 H   0  0  0  0  0  0  0  0  0  0  0  0
   16.5045   13.0039    2.5037 H   0  0  0  0  0  0  0  0  0  0  0  0
   18.2032   16.6001    1.7485 H   0  0  0  0  0  0  0  0  0  0  0  0
   19.6850   18.7979    1.8489 H   0  0  0  0  0  0  0  0  0  0  0  0
   21.3497   18.7612    3.8552 H   0  0  0  0  0  0  0  0  0  0  0  0
  2  1  1  0
  3  2  1  0
  4  3  2  0
  5  4  1  0
  6  5  2  0
  7  6  1  0
  8  7  2  0
  8  3  1  0
  9  8  1  0
 10  9  1  0
 10  1  1  0
 12  1  1  0
 12 11  1  0
 13 12  2  0
 14 10  1  0
 15 14  2  0
 16 14  2  0
 17 14  1  0
 18 17  2  0
 19 18  1  0
 20 19  2  0
 21 17  1  0
 21 20  1  0
  1 22  1  1
  2 23  1  0
  2 24  1  0
  4 25  1  0
  5 26  1  0
  6 27  1  0
  7 28  1  0
  9 29  1  0
  9 30  1  0
 18 31  1  0
 19 32  1  0
 20 33  1  0
M  CHG  1  11  -1
M  END
$$$$
=
     RDKit          3D

 26 25  0  0  0  0  0  0  0  0999 V2000
   15.2710   15.8560    4.8670 C   0  0  0  0  0  0  0  0  0  0  0  0
   16.2240   15.7330    6.0570 C   0  0  0  0  0  0  0  0  0  0  0  0
   17.5220   16.5270    5.8760 C   0  0  0  0  0  0  0  0  0  0  0  0
   18.7070   15.6680    5.4420 C   0  0  0  0  0  0  0  0  0  0  0  0
   19.3730   14.5780    3.4690 O   0  0  0  0  0  1  0  0  0  0  0  0
   19.0220   15.6970    3.9440 C   0  0  0  0  0  0  0  0  0  0  0  0
   18.8900   16.8070    3.3590 O   0  0  0  0  0  0  0  0  0  0  0  0
   14.9280   14.4870    4.2760 C   0  0  0  0  0  0  0  0  0  0  0  0
   15.8220   14.1750    3.0780 C   0  0  0  0  0  0  0  0  0  0  0  0
   15.8580   12.7000    2.7460 C   0  0  0  0  0  0  0  0  0  0  0  0
   16.8710   12.0350    2.5710 O   0  0  0  0  0  0  0  0  0  0  0  0
   14.6220   12.1210    2.6660 N   0  0  0  0  0  0  0  0  0  0  0  0
   14.3431   16.3429    5.2016 H   0  0  0  0  0  0  0  0  0  0  0  0
   15.7687   16.4521    4.0879 H   0  0  0  0  0  0  0  0  0  0  0  0
   15.7100   16.1036    6.9562 H   0  0  0  0  0  0  0  0  0  0  0  0
   16.4999   14.6719    6.1463 H   0  0  0  0  0  0  0  0  0  0  0  0
   17.3536   17.2995    5.1112 H   0  0  0  0  0  0  0  0  0  0  0  0
   17.7767   16.9576    6.8557 H   0  0  0  0  0  0  0  0  0  0  0  0
   19.5978   16.0192    5.9835 H   0  0  0  0  0  0  0  0  0  0  0  0
   18.4310   14.6289    5.6748 H   0  0  0  0  0  0  0  0  0  0  0  0
   15.0739   13.7149    5.0458 H   0  0  0  0  0  0  0  0  0  0  0  0
   13.8804   14.4998    3.9407 H   0  0  0  0  0  0  0  0  0  0  0  0
   15.4426   14.7236    2.2033 H   0  0  0  0  0  0  0  0  0  0  0  0
   16.8457   14.4825    3.3379 H   0  0  0  0  0  0  0  0  0  0  0  0
   14.5362   11.1187    2.4448 H   0  0  0  0  0  0  0  0  0  0  0  0
   13.7767   12.6871    2.8269 H   0  0  0  0  0  0  0  0  0  0  0  0
  2  1  1  0
  3  2  1  0
  4  3  1  0
  6  5  1  0
  6  4  1  0
  7  6  2  0
  8  1  1  0
  9  8  1  0
 10  9  1  0
 11 10  2  0
 12 10  1  0
  1 13  1  0
  1 14  1  0
  2 15  1  0
  2 16  1  0
  3 17  1  0
  3 18  1  0
  4 19  1  0
  4 20  1  0
  8 21  1  0
  8 22  1  0
  9 23  1  0
  9 24  1  0
 12 25  1  0
 12 26  1  0
M  CHG  1   5  -1
M  END
$$$$
=
     RDKit          3D

 79 84  0  0  0  0  0  0  0  0999 V2000
   14.3280   25.8180   17.8680 C   0  0  0  0  0  0  0  0  0  0  0  0
   15.2270   26.8080   17.7290 C   0  0  0  0  0  0  0  0  0  0  0  0
   15.3050   28.0900   18.4860 C   0  0  0  0  0  0  0  0  0  0  0  0
   16.1690   26.4350   16.6710 C   0  0  0  0  0  0  0  0  0  0  0  0
   15.7910   25.2040   16.2220 N   0  0  0  0  0  0  0  0  0  0  0  0
   14.6780   24.7850   16.8870 C   0  0  0  0  0  0  0  0  0  0  0  0
   13.9470   23.6550   16.7470 C   0  0  0  0  0  0  0  0  0  0  0  0
   14.2490   22.5740   15.6450 C   0  0  0  0  0  0  0  0  0  0  0  0
   15.1920   22.7140   14.6670 N   0  0  0  0  0  0  0  0  0  0  0  0
   15.1520   21.6350   13.8210 C   0  0  0  0  0  0  0  0  0  0  0  0
   14.1930   20.7520   14.2860 C   0  0  0  0  0  0  0  0  0  0  0  0
   13.6180   21.3520   15.4720 C   0  0  0  0  0  0  0  0  0  0  0  0
   12.5480   20.7870   16.3310 C   0  0  0  0  0  0  0  0  0  0  0  0
   16.0700   21.4860   12.5470 C   0  0  0  0  0  0  0  0  0  0  0  0
   17.0890   22.3450   12.3270 C   0  0  0  0  0  0  0  0  0  0  0  0
   17.5100   23.3970   13.0950 N   0  0  0  0  0  0  0  0  0  0  0  0
   18.5490   23.9890   12.4780 C   0  0  0  0  0  0  0  0  0  0  0  0
   19.3970   25.0320   12.6310 C   0  0  0  0  0  0  0  0  0  0  0  0
   19.2850   25.8900   13.6720 C   0  0  0  0  0  0  0  0  0  0  0  0
   18.3180   25.8430   14.6470 N   0  0  0  0  0  0  0  0  0  0  0  0
   18.1060   26.9950   15.3480 C   0  0  0  0  0  0  0  0  0  0  0  0
   17.1710   27.2630   16.2820 C   0  0  0  0  0  0  0  0  0  0  0  0
   19.1230   28.0150   14.8300 C   0  0  2  0  0  0  0  0  0  0  0  0
   18.4340   29.0900   13.9830 C   0  0  0  0  0  0  0  0  0  0  0  0
   20.1100   27.1620   13.9470 C   0  0  1  0  0  0  0  0  0  0  0  0
   20.3840   25.1160   11.4580 C   0  0  2  0  0  0  0  0  0  0  0  0
   19.9110   23.9710   10.5690 C   0  0  0  0  0  0  0  0  0  0  0  0
   20.3700   23.6460    9.4800 O   0  0  0  0  0  0  0  0  0  0  0  0
   18.8040   23.3000   11.2530 C   0  0  0  0  0  0  0  0  0  0  0  0
   17.9460   22.2900   11.1330 C   0  0  0  0  0  0  0  0  0  0  0  0
   17.8360   21.3140   10.0250 C   0  0  0  0  0  0  0  0  0  0  0  0
   12.0320   26.3570   18.5650 C   0  0  0  0  0  0  0  0  0  0  0  0
   13.2430   25.8490   18.8270 C   0  0  0  0  0  0  0  0  0  0  0  0
   13.8220   19.4380   13.6830 C   0  0  0  0  0  0  0  0  0  0  0  0
   12.4040   19.4310   13.1340 C   0  0  0  0  0  0  0  0  0  0  0  0
   21.8490   24.9270   11.7740 C   0  0  0  0  0  0  0  0  0  0  0  0
   22.2830   23.9720   12.4170 O   0  0  0  0  0  0  0  0  0  0  0  0
   22.6220   25.9680   11.3570 O   0  0  0  0  0  0  0  0  0  0  0  0
   24.0010   25.8520   11.6890 C   0  0  0  0  0  0  0  0  0  0  0  0
   21.4130   26.8510   14.7260 C   0  0  0  0  0  0  0  0  0  0  0  0
   21.3920   27.3050   16.1910 C   0  0  0  0  0  0  0  0  0  0  0  0
   22.4670   26.8150   17.1660 C   0  0  0  0  0  0  0  0  0  0  0  0
   23.1710   27.6910   17.7340 O   0  0  0  0  0  0  0  0  0  0  0  0
   22.5330   25.5530   17.2840 O   0  0  0  0  0  1  0  0  0  0  0  0
   15.2922   27.8797   19.5656 H   0  0  0  0  0  0  0  0  0  0  0  0
   16.2367   28.6136   18.2255 H   0  0  0  0  0  0  0  0  0  0  0  0
   14.4437   28.7227   18.2255 H   0  0  0  0  0  0  0  0  0  0  0  0
   13.1048   23.4849   17.4338 H   0  0  0  0  0  0  0  0  0  0  0  0
   15.8376   23.5116   14.5779 H   0  0  0  0  0  0  0  0  0  0  0  0
   12.8145   20.9277   17.3889 H   0  0  0  0  0  0  0  0  0  0  0  0
   11.5988   21.3014   16.1204 H   0  0  0  0  0  0  0  0  0  0  0  0
   12.4375   19.7130   16.1204 H   0  0  0  0  0  0  0  0  0  0  0  0
   15.8784   20.6740   11.8301 H   0  0  0  0  0  0  0  0  0  0  0  0
   17.7819   24.9847   14.8387 H   0  0  0  0  0  0  0  0  0  0  0  0
   17.2258   28.2450   16.7747 H   0  0  0  0  0  0  0  0  0  0  0  0
   19.6356   28.5473   15.6448 H   0  0  0  0  0  0  0  0  0  0  0  0
   17.9598   29.8299   14.6445 H   0  0  0  0  0  0  0  0  0  0  0  0
   19.1800   29.5906   13.3482 H   0  0  0  0  0  0  0  0  0  0  0  0
   17.6676   28.6213   13.3482 H   0  0  0  0  0  0  0  0  0  0  0  0
   20.4437   27.6656   13.0277 H   0  0  0  0  0  0  0  0  0  0  0  0
   20.3657   26.1303   11.0328 H   0  0  0  0  0  0  0  0  0  0  0  0
   17.7218   20.3011   10.4386 H   0  0  0  0  0  0  0  0  0  0  0  0
   16.9597   21.5585    9.4066 H   0  0  0  0  0  0  0  0  0  0  0  0
   18.7447   21.3573    9.4066 H   0  0  0  0  0  0  0  0  0  0  0  0
   11.2523   26.3484   19.3409 H   0  0  0  0  0  0  0  0  0  0  0  0
   11.8169   26.7829   17.5739 H   0  0  0  0  0  0  0  0  0  0  0  0
   13.4242   25.4312   19.8283 H   0  0  0  0  0  0  0  0  0  0  0  0
   14.5197   19.2167   12.8618 H   0  0  0  0  0  0  0  0  0  0  0  0
   13.8780   18.6777   14.4760 H   0  0  0  0  0  0  0  0  0  0  0  0
   11.6876   19.4275   13.9688 H   0  0  0  0  0  0  0  0  0  0  0  0
   12.2449   20.3284   12.5180 H   0  0  0  0  0  0  0  0  0  0  0  0
   12.2537   18.5321   12.5180 H   0  0  0  0  0  0  0  0  0  0  0  0
   24.1152   25.8424   12.7830 H   0  0  0  0  0  0  0  0  0  0  0  0
   24.4016   24.9170   11.2703 H   0  0  0  0  0  0  0  0  0  0  0  0
   24.5521   26.7070   11.2703 H   0  0  0  0  0  0  0  0  0  0  0  0
   21.5771   25.7635   14.7040 H   0  0  0  0  0  0  0  0  0  0  0  0
   22.2191   27.4132   14.2319 H   0  0  0  0  0  0  0  0  0  0  0  0
   21.4494   28.4035   16.1827 H   0  0  0  0  0  0  0  0  0  0  0  0
   20.4718   26.8462   16.5819 H   0  0  0  0  0  0  0  0  0  0  0  0
  2  1  2  0
  3  2  1  0
  4  2  1  0
  5  4  2  0
  6  5  1  0
  6  1  1  0
  7  6  2  0
  8  7  1  0
  9  8  1  0
 10  9  1  0
 11 10  2  0
 12 11  1  0
 12  8  2  0
 13 12  1  0
 14 10  1  0
 15 14  2  0
 16 15  1  0
 17 16  2  0
 18 17  1  0
 19 18  2  0
 20 19  1  0
 21 20  1  0
 22  4  1  0
 22 21  2  0
 23 21  1  0
 24 23  1  0
 25 19  1  0
 25 23  1  0
 26 18  1  0
 27 26  1  0
 28 27  2  0
 29 27  1  0
 29 17  1  0
 30 29  2  0
 30 15  1  0
 31 30  1  0
 33 32  2  3
 33  1  1  0
 34 11  1  0
 35 34  1  0
 36 26  1  0
 37 36  2  0
 38 36  1  0
 39 38  1  0
 40 25  1  0
 41 40  1  0
 42 41  1  0
 43 42  2  0
 44 42  1  0
  3 45  1  0
  3 46  1  0
  3 47  1  0
  7 48  1  0
  9 49  1  0
 13 50  1  0
 13 51  1  0
 13 52  1  0
 14 53  1  0
 20 54  1  0
 22 55  1  0
 23 56  1  1
 24 57  1  0
 24 58  1  0
 24 59  1  0
 25 60  1  6
 26 61  1  6
 31 62  1  0
 31 63  1  0
 31 64  1  0
 32 65  1  0
 32 66  1  0
 33 67  1  0
 34 68  1  0
 34 69  1  0
 35 70  1  0
 35 71  1  0
 35 72  1  0
 39 73  1  0
 39 74  1  0
 39 75  1  0
 40 76  1  0
 40 77  1  0
 41 78  1  0
 41 79  1  0
M  CHG  1  44  -1
M  END
$$$$
=
     RDKit          3D

 24 24  0  0  0  0  0  0  0  0999 V2000
   18.1200   14.5530    3.7050 C   0  0  0  0  0  0  0  0  0  0  0  0
   16.7900   14.9890    3.6270 C   0  0  0  0  0  0  0  0  0  0  0  0
   15.7810   14.1140    3.2230 C   0  0  0  0  0  0  0  0  0  0  0  0
   16.1020   12.8040    2.8850 C   0  0  0  0  0  0  0  0  0  0  0  0
   17.4170   12.3530    2.9500 C   0  0  0  0  0  0  0  0  0  0  0  0
   18.4220   13.2290    3.3610 C   0  0  0  0  0  0  0  0  0  0  0  0
   15.0920   11.9790    2.4830 O   0  0  0  0  0  0  0  0  0  0  0  0
   19.2220   15.4990    4.1350 C   0  0  0  0  0  0  0  0  0  0  0  0
   19.1010   17.8390    5.0520 C   0  0  0  0  0  0  0  0  0  0  0  0
   18.9170   16.9630    3.8120 C   0  0  1  0  0  0  0  0  0  0  0  0
   19.8550   17.5900    2.7660 C   0  0  0  0  0  0  0  0  0  0  0  0
   19.4180   17.6460    1.5820 O   0  0  0  0  0  0  0  0  0  0  0  0
   20.9750   17.9630    3.2190 O   0  0  0  0  0  1  0  0  0  0  0  0
   16.5400   16.0284    3.8861 H   0  0  0  0  0  0  0  0  0  0  0  0
   14.7376   14.4586    3.1722 H   0  0  0  0  0  0  0  0  0  0  0  0
   17.6618   11.3152    2.6797 H   0  0  0  0  0  0  0  0  0  0  0  0
   19.4625   12.8764    3.4155 H   0  0  0  0  0  0  0  0  0  0  0  0
   15.2881   11.0407    2.2356 H   0  0  0  0  0  0  0  0  0  0  0  0
   19.3621   15.4022    5.2217 H   0  0  0  0  0  0  0  0  0  0  0  0
   20.1282   15.2220    3.5763 H   0  0  0  0  0  0  0  0  0  0  0  0
   18.9723   17.2261    5.9563 H   0  0  0  0  0  0  0  0  0  0  0  0
   20.1105   18.2759    5.0458 H   0  0  0  0  0  0  0  0  0  0  0  0
   18.3526   18.6451    5.0458 H   0  0  0  0  0  0  0  0  0  0  0  0
   17.8850   16.9370    3.4321 H   0  0  0  0  0  0  0  0  0  0  0  0
  2  1  2  0
  3  2  1  0
  4  3  2  0
  5  4  1  0
  6  5  2  0
  6  1  1  0
  7  4  1  0
  8  1  1  0
 10  8  1  0
 10  9  1  0
 11 10  1  0
 12 11  2  0
 13 11  1  0
  2 14  1  0
  3 15  1  0
  5 16  1  0
  6 17  1  0
  7 18  1  0
  8 19  1  0
  8 20  1  0
  9 21  1  0
  9 22  1  0
  9 23  1  0
 10 24  1  6
M  CHG  1  13  -1
M  END
$$$$
=
     RDKit          3D

 27 27  0  0  0  0  0  0  0  0999 V2000
   16.5640   15.0720    4.2400 C   0  0  0  0  0  0  0  0  0  0  0  0
   15.2720   14.5410    3.9340 C   0  0  0  0  0  0  0  0  0  0  0  0
   14.0150   15.2910    4.3110 C   0  0  0  0  0  0  0  0  0  0  0  0
   15.1570   13.3390    3.1990 C   0  0  0  0  0  0  0  0  0  0  0  0
   16.3050   12.6580    2.8010 C   0  0  0  0  0  0  0  0  0  0  0  0
   17.5640   13.1650    3.1120 C   0  0  0  0  0  0  0  0  0  0  0  0
   17.7240   14.3630    3.8310 C   0  0  0  0  0  0  0  0  0  0  0  0
   19.1540   14.8220    4.0900 C   0  0  0  0  0  0  0  0  0  0  0  0
   19.7310   15.5230    3.2010 O   0  0  0  0  0  0  0  0  0  0  0  0
   19.6600   14.4880    5.2090 O   0  0  0  0  0  1  0  0  0  0  0  0
   16.8300   16.2240    6.4850 C   0  0  0  0  0  0  0  0  0  0  0  0
   16.6960   16.3950    4.9760 C   0  0  0  0  0  0  0  0  0  0  0  0
   13.8790   12.9220    2.9110 O   0  0  0  0  0  0  0  0  0  0  0  0
   13.3080   11.9380    3.7610 C   0  0  0  0  0  0  0  0  0  0  0  0
   13.9322   15.3404    5.4068 H   0  0  0  0  0  0  0  0  0  0  0  0
   14.0592   16.3105    3.9003 H   0  0  0  0  0  0  0  0  0  0  0  0
   13.1388   14.7679    3.9003 H   0  0  0  0  0  0  0  0  0  0  0  0
   16.2167   11.7165    2.2391 H   0  0  0  0  0  0  0  0  0  0  0  0
   18.4581   12.6132    2.7863 H   0  0  0  0  0  0  0  0  0  0  0  0
   16.2291   16.9909    6.9957 H   0  0  0  0  0  0  0  0  0  0  0  0
   16.4719   15.2249    6.7740 H   0  0  0  0  0  0  0  0  0  0  0  0
   17.8858   16.3329    6.7740 H   0  0  0  0  0  0  0  0  0  0  0  0
   17.5886   16.9174    4.6014 H   0  0  0  0  0  0  0  0  0  0  0  0
   15.7767   16.9695    4.7894 H   0  0  0  0  0  0  0  0  0  0  0  0
   13.4721   12.2208    4.8113 H   0  0  0  0  0  0  0  0  0  0  0  0
   12.2280   11.8663    3.5651 H   0  0  0  0  0  0  0  0  0  0  0  0
   13.7816   10.9647    3.5651 H   0  0  0  0  0  0  0  0  0  0  0  0
  2  1  2  0
  3  2  1  0
  4  2  1  0
  5  4  2  0
  6  5  1  0
  7  6  2  0
  7  1  1  0
  8  7  1  0
  9  8  2  0
 10  8  1  0
 12  1  1  0
 12 11  1  0
 13  4  1  0
 14 13  1  0
  3 15  1  0
  3 16  1  0
  3 17  1  0
  5 18  1  0
  6 19  1  0
 11 20  1  0
 11 21  1  0
 11 22  1  0
 12 23  1  0
 12 24  1  0
 14 25  1  0
 14 26  1  0
 14 27  1  0
M  CHG  1  10  -1
M  END
$$$$
=
     RDKit          3D

 46 47  0  0  0  0  0  0  0  0999 V2000
   24.2100   24.7920   13.1320 C   0  0  0  0  0  0  0  0  0  0  0  0
   23.4170   24.7230   12.1940 O   0  0  0  0  0  0  0  0  0  0  0  0
   25.5830   24.9160   12.9500 N   0  0  0  0  0  0  0  0  0  0  0  0
   22.9970   25.7860   15.0070 C   0  0  0  0  0  0  0  0  0  0  0  0
   23.7330   24.7730   14.5310 C   0  0  0  0  0  0  0  0  0  0  0  0
   22.7310   26.9010   17.0470 O   0  0  0  0  0  1  0  0  0  0  0  0
   22.5470   25.7980   16.4610 C   0  0  0  0  0  0  0  0  0  0  0  0
   22.0770   24.7130   16.9020 O   0  0  0  0  0  0  0  0  0  0  0  0
   26.0700   25.0140   11.5800 C   0  0  0  0  0  0  0  0  0  0  0  0
   26.8140   23.7770   11.2200 C   0  0  0  0  0  0  0  0  0  0  0  0
   28.2120   23.6450   11.0440 C   0  0  0  0  0  0  0  0  0  0  0  0
   28.5780   22.3950   10.7470 N   0  0  0  0  0  0  0  0  0  0  0  0
   27.4130   21.7290   10.6940 N   0  0  0  0  0  0  0  0  0  0  0  0
   26.3290   22.5030   10.9910 C   0  0  0  0  0  0  0  0  0  0  0  0
   27.4150   20.3290   10.3530 C   0  0  0  0  0  0  0  0  0  0  0  0
   26.5640   25.1160   14.0320 C   0  0  0  0  0  0  0  0  0  0  0  0
   26.9250   26.5780   14.2200 C   0  0  0  0  0  0  0  0  0  0  0  0
   26.5460   27.1640   15.8690 S   0  0  0  0  0  6  0  0  0  0  0  0
   26.3180   26.0540   16.7690 O   0  0  0  0  0  0  0  0  0  0  0  0
   25.5830   28.2400   15.7560 O   0  0  0  0  0  0  0  0  0  0  0  0
   28.0090   27.8900   16.3320 N   0  0  0  0  0  0  0  0  0  0  0  0
   28.1540   29.3620   16.2130 C   0  0  0  0  0  0  0  0  0  0  0  0
   29.5190   29.5850   15.5690 C   0  0  0  0  0  0  0  0  0  0  0  0
   30.2930   28.3340   15.9300 C   0  0  0  0  0  0  0  0  0  0  0  0
   29.2350   27.2530   15.7890 C   0  0  0  0  0  0  0  0  0  0  0  0
   22.7156   26.6157   14.3418 H   0  0  0  0  0  0  0  0  0  0  0  0
   23.9834   23.9237   15.1837 H   0  0  0  0  0  0  0  0  0  0  0  0
   25.2167   25.1387   10.8971 H   0  0  0  0  0  0  0  0  0  0  0  0
   26.7426   25.8802   11.4947 H   0  0  0  0  0  0  0  0  0  0  0  0
   28.9204   24.4809   11.1412 H   0  0  0  0  0  0  0  0  0  0  0  0
   25.2792   22.1780   11.0386 H   0  0  0  0  0  0  0  0  0  0  0  0
   27.4159   19.7273   11.2739 H   0  0  0  0  0  0  0  0  0  0  0  0
   26.5172   20.0942    9.7624 H   0  0  0  0  0  0  0  0  0  0  0  0
   28.3135   20.0967    9.7624 H   0  0  0  0  0  0  0  0  0  0  0  0
   26.1376   24.7335   14.9711 H   0  0  0  0  0  0  0  0  0  0  0  0
   27.4820   24.5756   13.7577 H   0  0  0  0  0  0  0  0  0  0  0  0
   28.0029   26.7024   14.0392 H   0  0  0  0  0  0  0  0  0  0  0  0
   26.3281   27.1666   13.5078 H   0  0  0  0  0  0  0  0  0  0  0  0
   27.3569   29.7770   15.5786 H   0  0  0  0  0  0  0  0  0  0  0  0
   28.0770   29.8606   17.1905 H   0  0  0  0  0  0  0  0  0  0  0  0
   29.4261   29.6880   14.4778 H   0  0  0  0  0  0  0  0  0  0  0  0
   30.0098   30.5060   15.9166 H   0  0  0  0  0  0  0  0  0  0  0  0
   31.1291   28.1674   15.2349 H   0  0  0  0  0  0  0  0  0  0  0  0
   30.7561   28.3725   16.9270 H   0  0  0  0  0  0  0  0  0  0  0  0
   29.0977   26.9733   14.7341 H   0  0  0  0  0  0  0  0  0  0  0  0
   29.5015   26.3237   16.3137 H   0  0  0  0  0  0  0  0  0  0  0  0
  2  1  2  0
  3  1  1  0
  5  4  2  0
  5  1  1  0
  7  4  1  0
  7  6  1  0
  8  7  2  0
  9  3  1  0
 10  9  1  0
 11 10  1  0
 12 11  2  0
 13 12  1  0
 14 10  2  0
 14 13  1  0
 15 13  1  0
 16  3  1  0
 17 16  1  0
 18 17  1  0
 19 18  2  0
 20 18  2  0
 21 18  1  0
 22 21  1  0
 23 22  1  0
 24 23  1  0
 25 24  1  0
 25 21  1  0
  4 26  1  0
  5 27  1  0
  9 28  1  0
  9 29  1  0
 11 30  1  0
 14 31  1  0
 15 32  1  0
 15 33  1  0
 15 34  1  0
 16 35  1  0
 16 36  1  0
 17 37  1  0
 17 38  1  0
 22 39  1  0
 22 40  1  0
 23 41  1  0
 23 42  1  0
 24 43  1  0
 24 44  1  0
 25 45  1  0
 25 46  1  0
M  CHG  1   6  -1
M  END
$$$$
=
     RDKit          3D

 37 37  0  0  0  0  0  0  0  0999 V2000
   27.0150   25.8420   13.5600 C   0  0  0  0  0  0  0  0  0  0  0  0
   26.8320   24.9110   12.5260 C   0  0  0  0  0  0  0  0  0  0  0  0
   27.8210   23.9660   12.2010 C   0  0  0  0  0  0  0  0  0  0  0  0
   29.0280   23.9740   12.9240 C   0  0  0  0  0  0  0  0  0  0  0  0
   29.2460   24.8900   13.9540 C   0  0  0  0  0  0  0  0  0  0  0  0
   28.2340   25.8180   14.2530 C   0  0  0  0  0  0  0  0  0  0  0  0
   27.5850   22.9480   11.1010 C   0  0  0  0  0  0  0  0  0  0  0  0
   28.6120   22.3850   10.6080 O   0  0  0  0  0  0  0  0  0  0  0  0
   26.3800   22.7420   10.7540 O   0  0  0  0  0  1  0  0  0  0  0  0
   30.3780   24.9570   14.7300 O   0  0  0  0  0  0  0  0  0  0  0  0
   30.6290   23.8360   15.5700 C   0  0  0  0  0  0  0  0  0  0  0  0
   25.9180   26.8170   13.8840 C   0  0  0  0  0  0  0  0  0  0  0  0
   25.1610   27.2520   16.5150 C   0  0  0  0  0  0  0  0  0  0  0  0
   24.7090   26.2060   15.1050 S   0  0  0  0  0  0  0  0  0  0  0  0
   28.4220   26.6800   15.3420 O   0  0  0  0  0  0  0  0  0  0  0  0
   29.0780   27.8600   15.0140 C   0  0  0  0  0  0  0  0  0  0  0  0
   28.7560   28.6690   14.1530 O   0  0  0  0  0  0  0  0  0  0  0  0
   30.2750   28.0120   15.9390 C   0  0  0  0  0  0  0  0  0  0  0  0
   30.6590   29.4830   16.0450 C   0  0  0  0  0  0  0  0  0  0  0  0
   29.9740   27.4270   17.3170 C   0  0  0  0  0  0  0  0  0  0  0  0
   25.8915   24.9208   11.9556 H   0  0  0  0  0  0  0  0  0  0  0  0
   29.8133   23.2457   12.6731 H   0  0  0  0  0  0  0  0  0  0  0  0
   30.5599   24.1445   16.6236 H   0  0  0  0  0  0  0  0  0  0  0  0
   29.8841   23.0522   15.3679 H   0  0  0  0  0  0  0  0  0  0  0  0
   31.6370   23.4447   15.3679 H   0  0  0  0  0  0  0  0  0  0  0  0
   26.3779   27.7332   14.2830 H   0  0  0  0  0  0  0  0  0  0  0  0
   25.3633   26.9896   12.9499 H   0  0  0  0  0  0  0  0  0  0  0  0
   24.9325   26.7231   17.4520 H   0  0  0  0  0  0  0  0  0  0  0  0
   26.2369   27.4775   16.4743 H   0  0  0  0  0  0  0  0  0  0  0  0
   24.5879   28.1901   16.4743 H   0  0  0  0  0  0  0  0  0  0  0  0
   31.1237   27.4533   15.5177 H   0  0  0  0  0  0  0  0  0  0  0  0
   30.7332   29.7671   17.1051 H   0  0  0  0  0  0  0  0  0  0  0  0
   31.6295   29.6450   15.5532 H   0  0  0  0  0  0  0  0  0  0  0  0
   29.8915   30.0987   15.5532 H   0  0  0  0  0  0  0  0  0  0  0  0
   30.3299   28.1187   18.0947 H   0  0  0  0  0  0  0  0  0  0  0  0
   28.8890   27.2813   17.4245 H   0  0  0  0  0  0  0  0  0  0  0  0
   30.4863   26.4595   17.4245 H   0  0  0  0  0  0  0  0  0  0  0  0
  2  1  2  0
  3  2  1  0
  4  3  2  0
  5  4  1  0
  6  1  1  0
  6  5  2  0
  7  3  1  0
  8  7  2  0
  9  7  1  0
 10  5  1  0
 11 10  1  0
 12  1  1  0
 14 12  1  0
 14 13  1  0
 15  6  1  0
 16 15  1  0
 17 16  2  0
 18 16  1  0
 19 18  1  0
 20 18  1  0
  2 21  1  0
  4 22  1  0
 11 23  1  0
 11 24  1  0
 11 25  1  0
 12 26  1  0
 12 27  1  0
 13 28  1  0
 13 29  1  0
 13 30  1  0
 18 31  1  0
 19 32  1  0
 19 33  1  0
 19 34  1  0
 20 35  1  0
 20 36  1  0
 20 37  1  0
M  CHG  1   9  -1
M  END
$$$$
=
     RDKit          3D

 37 39  0  0  0  0  0  0  0  0999 V2000
   27.3050   27.4040   14.4520 C   0  0  2  0  0  0  0  0  0  0  0  0
   28.5570   28.1440   14.9250 C   0  0  1  0  0  0  0  0  0  0  0  0
   28.0440   29.6470   15.8420 S   0  0  0  0  0  0  0  0  0  0  0  0
   27.1260   28.7990   17.1420 C   0  0  0  0  0  0  0  0  0  0  0  0
   26.0870   27.7990   16.6650 C   0  0  0  0  0  0  0  0  0  0  0  0
   25.1220   27.5710   17.4140 O   0  0  0  0  0  0  0  0  0  0  0  0
   26.2130   27.1540   15.4350 N   0  0  0  0  0  0  0  0  0  0  0  0
   28.3730   23.9780   11.9750 C   0  0  0  0  0  0  0  0  0  0  0  0
   28.1730   25.2330   11.4020 C   0  0  0  0  0  0  0  0  0  0  0  0
   27.8330   26.3290   12.2040 C   0  0  0  0  0  0  0  0  0  0  0  0
   27.6760   26.1880   13.5940 C   0  0  0  0  0  0  0  0  0  0  0  0
   27.8900   24.9240   14.1580 C   0  0  0  0  0  0  0  0  0  0  0  0
   28.2290   23.8320   13.3560 C   0  0  0  0  0  0  0  0  0  0  0  0
   27.6330   22.1170   10.7030 C   0  0  0  0  0  0  0  0  0  0  0  0
   28.7030   22.8320   11.3050 O   0  0  0  0  0  0  0  0  0  0  0  0
   25.1230   26.2830   15.0180 C   0  0  0  0  0  0  0  0  0  0  0  0
   23.7320   26.8200   14.7690 C   0  0  0  0  0  0  0  0  0  0  0  0
   24.5390   26.2990   13.6250 C   0  0  0  0  0  0  0  0  0  0  0  0
   29.5510   27.3930   15.8290 C   0  0  0  0  0  0  0  0  0  0  0  0
   30.7220   27.8750   15.8560 O   0  0  0  0  0  0  0  0  0  0  0  0
   29.1040   26.3830   16.4440 O   0  0  0  0  0  1  0  0  0  0  0  0
   26.7962   28.1438   13.8166 H   0  0  0  0  0  0  0  0  0  0  0  0
   29.1024   28.3274   13.9875 H   0  0  0  0  0  0  0  0  0  0  0  0
   27.8498   28.2609   17.7718 H   0  0  0  0  0  0  0  0  0  0  0  0
   26.5678   29.5818   17.6764 H   0  0  0  0  0  0  0  0  0  0  0  0
   28.2828   25.3627   10.3152 H   0  0  0  0  0  0  0  0  0  0  0  0
   27.6865   27.3153   11.7396 H   0  0  0  0  0  0  0  0  0  0  0  0
   27.7899   24.7898   15.2452 H   0  0  0  0  0  0  0  0  0  0  0  0
   28.3843   22.8457   13.8176 H   0  0  0  0  0  0  0  0  0  0  0  0
   26.9915   21.6883   11.4870 H   0  0  0  0  0  0  0  0  0  0  0  0
   27.0405   22.8013   10.0779 H   0  0  0  0  0  0  0  0  0  0  0  0
   28.0385   21.3078   10.0779 H   0  0  0  0  0  0  0  0  0  0  0  0
   25.5707   25.5100   15.6600 H   0  0  0  0  0  0  0  0  0  0  0  0
   22.8550   26.2583   15.1231 H   0  0  0  0  0  0  0  0  0  0  0  0
   23.2153   27.7664   14.9865 H   0  0  0  0  0  0  0  0  0  0  0  0
   24.2549   25.3544   13.1381 H   0  0  0  0  0  0  0  0  0  0  0  0
   24.8601   26.7047   12.6543 H   0  0  0  0  0  0  0  0  0  0  0  0
  2  1  1  0
  3  2  1  0
  4  3  1  0
  5  4  1  0
  6  5  2  0
  7  5  1  0
  7  1  1  0
  9  8  2  0
 10  9  1  0
 11 10  2  0
 11  1  1  0
 12 11  1  0
 13 12  2  0
 13  8  1  0
 15 14  1  0
 15  8  1  0
 16  7  1  0
 17 16  1  0
 18 17  1  0
 18 16  1  0
 19  2  1  0
 20 19  2  0
 21 19  1  0
  1 22  1  6
  2 23  1  6
  4 24  1  0
  4 25  1  0
  9 26  1  0
 10 27  1  0
 12 28  1  0
 13 29  1  0
 14 30  1  0
 14 31  1  0
 14 32  1  0
 16 33  1  0
 17 34  1  0
 17 35  1  0
 18 36  1  0
 18 37  1  0
M  CHG  1  21  -1
M  END
$$$$
=
     RDKit          3D

 45 47  0  0  0  0  0  0  0  0999 V2000
   20.9870   23.9930   11.6840 C   0  0  0  0  0  0  0  0  0  0  0  0
   22.1200   24.7380   12.3870 C   0  0  2  0  0  0  0  0  0  0  0  0
   22.6270   25.8940   11.5160 C   0  0  0  0  0  0  0  0  0  0  0  0
   23.7920   26.6320   12.1820 C   0  0  0  0  0  0  0  0  0  0  0  0
   24.9430   25.6820   12.5610 C   0  0  1  0  0  0  0  0  0  0  0  0
   24.4280   24.5040   13.4100 C   0  0  0  0  0  0  0  0  0  0  0  0
   23.2610   23.7760   12.7400 C   0  0  0  0  0  0  0  0  0  0  0  0
   25.4630   25.1650   11.3080 O   0  0  0  0  0  0  0  0  0  0  0  0
   26.8710   24.9330   11.5060 C   0  0  0  0  0  0  0  0  0  0  0  0
   27.3140   25.9890   12.4940 C   0  0  1  0  0  0  0  0  0  0  0  0
   26.0660   26.3610   13.1710 N   0  0  0  0  0  0  0  0  0  0  0  0
   25.9700   27.0930   14.3350 C   0  0  0  0  0  0  0  0  0  0  0  0
   24.9330   27.2620   14.9730 O   0  0  0  0  0  0  0  0  0  0  0  0
   27.1840   27.7730   14.8330 C   0  0  0  0  0  0  0  0  0  0  0  0
   27.7460   28.7990   14.0720 C   0  0  0  0  0  0  0  0  0  0  0  0
   28.9010   29.4370   14.5210 C   0  0  0  0  0  0  0  0  0  0  0  0
   29.4970   29.0380   15.7200 C   0  0  0  0  0  0  0  0  0  0  0  0
   28.9430   28.0000   16.4890 C   0  0  0  0  0  0  0  0  0  0  0  0
   27.7840   27.3580   16.0260 C   0  0  0  0  0  0  0  0  0  0  0  0
   29.6040   27.5620   17.7680 C   0  0  0  0  0  0  0  0  0  0  0  0
   29.9030   26.2330   17.8080 F   0  0  0  0  0  0  0  0  0  0  0  0
   28.8540   27.8100   18.8800 F   0  0  0  0  0  0  0  0  0  0  0  0
   30.7870   28.2090   17.9790 F   0  0  0  0  0  0  0  0  0  0  0  0
   28.4260   25.2720   13.2880 C   0  0  0  0  0  0  0  0  0  0  0  0
   29.5530   25.8430   13.3260 O   0  0  0  0  0  0  0  0  0  0  0  0
   28.0650   24.1810   13.8210 O   0  0  0  0  0  1  0  0  0  0  0  0
   20.3162   23.5519   12.4360 H   0  0  0  0  0  0  0  0  0  0  0  0
   20.4210   24.6957   11.0549 H   0  0  0  0  0  0  0  0  0  0  0  0
   21.4079   23.1948   11.0549 H   0  0  0  0  0  0  0  0  0  0  0  0
   21.7293   25.1621   13.3238 H   0  0  0  0  0  0  0  0  0  0  0  0
   22.9650   25.4914   10.5497 H   0  0  0  0  0  0  0  0  0  0  0  0
   21.8017   26.6079   11.3768 H   0  0  0  0  0  0  0  0  0  0  0  0
   24.1749   27.3916   11.4846 H   0  0  0  0  0  0  0  0  0  0  0  0
   23.4152   27.0914   13.1077 H   0  0  0  0  0  0  0  0  0  0  0  0
   25.2510   23.7900   13.5615 H   0  0  0  0  0  0  0  0  0  0  0  0
   24.0685   24.9092   14.3674 H   0  0  0  0  0  0  0  0  0  0  0  0
   23.6218   23.2972   11.8177 H   0  0  0  0  0  0  0  0  0  0  0  0
   22.8725   23.0278   13.4466 H   0  0  0  0  0  0  0  0  0  0  0  0
   27.0419   23.9264   11.9153 H   0  0  0  0  0  0  0  0  0  0  0  0
   27.4333   24.9924   10.5624 H   0  0  0  0  0  0  0  0  0  0  0  0
   27.7553   26.9386   12.1572 H   0  0  0  0  0  0  0  0  0  0  0  0
   27.2800   29.1025   13.1230 H   0  0  0  0  0  0  0  0  0  0  0  0
   29.3430   30.2540   13.9318 H   0  0  0  0  0  0  0  0  0  0  0  0
   30.4111   29.5424   16.0665 H   0  0  0  0  0  0  0  0  0  0  0  0
   27.3476   26.5284   16.6016 H   0  0  0  0  0  0  0  0  0  0  0  0
  2  1  1  0
  3  2  1  0
  4  3  1  0
  5  4  1  0
  6  5  1  0
  7  6  1  0
  7  2  1  0
  5  8  1  6
  9  8  1  0
 10  9  1  0
 11  5  1  0
 11 10  1  0
 12 11  1  0
 13 12  2  0
 14 12  1  0
 15 14  2  0
 16 15  1  0
 17 16  2  0
 18 17  1  0
 19 14  1  0
 19 18  2  0
 20 18  1  0
 21 20  1  0
 22 20  1  0
 23 20  1  0
 24 10  1  0
 25 24  2  0
 26 24  1  0
  1 27  1  0
  1 28  1  0
  1 29  1  0
  2 30  1  1
  3 31  1  0
  3 32  1  0
  4 33  1  0
  4 34  1  0
  6 35  1  0
  6 36  1  0
  7 37  1  0
  7 38  1  0
  9 39  1  0
  9 40  1  0
 10 41  1  6
 15 42  1  0
 16 43  1  0
 17 44  1  0
 19 45  1  0
M  CHG  1  26  -1
M  END
$$$$
=
     RDKit          3D

 32 32  0  0  0  0  0  0  0  0999 V2000
   19.8240   15.7490    4.2800 C   0  0  0  0  0  0  0  0  0  0  0  0
   21.1640   16.0280    4.6170 C   0  0  0  0  0  0  0  0  0  0  0  0
   21.6850   15.6980    5.8660 C   0  0  0  0  0  0  0  0  0  0  0  0
   20.8680   15.0950    6.8120 C   0  0  0  0  0  0  0  0  0  0  0  0
   19.5350   14.8240    6.5040 C   0  0  0  0  0  0  0  0  0  0  0  0
   18.9930   15.1310    5.2390 C   0  0  0  0  0  0  0  0  0  0  0  0
   19.3550   16.1800    2.9070 C   0  0  0  0  0  0  0  0  0  0  0  0
   20.3530   17.8160    1.5140 O   0  0  0  0  0  1  0  0  0  0  0  0
   19.7150   17.6330    2.5930 C   0  0  0  0  0  0  0  0  0  0  0  0
   19.3840   18.4760    3.4780 O   0  0  0  0  0  0  0  0  0  0  0  0
   17.5270   14.8270    4.9920 C   0  0  0  0  0  0  0  0  0  0  0  0
   16.4780   15.8180    5.5810 C   0  0  0  0  0  0  0  0  0  0  0  0
   17.0530   17.2320    5.7670 C   0  0  0  0  0  0  0  0  0  0  0  0
   15.2150   15.9100    4.7050 C   0  0  0  0  0  0  0  0  0  0  0  0
   16.0540   15.2850    6.9660 C   0  0  0  0  0  0  0  0  0  0  0  0
   21.8134   16.5177    3.8764 H   0  0  0  0  0  0  0  0  0  0  0  0
   22.7376   15.9140    6.1011 H   0  0  0  0  0  0  0  0  0  0  0  0
   21.2704   14.8317    7.8013 H   0  0  0  0  0  0  0  0  0  0  0  0
   18.8914   14.3599    7.2658 H   0  0  0  0  0  0  0  0  0  0  0  0
   19.8244   15.5299    2.1540 H   0  0  0  0  0  0  0  0  0  0  0  0
   18.2584   16.0963    2.8875 H   0  0  0  0  0  0  0  0  0  0  0  0
   17.3758   14.7959    3.9029 H   0  0  0  0  0  0  0  0  0  0  0  0
   17.3444   13.8791    5.5194 H   0  0  0  0  0  0  0  0  0  0  0  0
   17.1429   17.4530    6.8408 H   0  0  0  0  0  0  0  0  0  0  0  0
   18.0457   17.2889    5.2966 H   0  0  0  0  0  0  0  0  0  0  0  0
   16.3817   17.9656    5.2966 H   0  0  0  0  0  0  0  0  0  0  0  0
   14.3258   15.9748    5.3493 H   0  0  0  0  0  0  0  0  0  0  0  0
   15.2737   16.8062    4.0699 H   0  0  0  0  0  0  0  0  0  0  0  0
   15.1432   15.0147    4.0699 H   0  0  0  0  0  0  0  0  0  0  0  0
   16.5326   15.8867    7.7527 H   0  0  0  0  0  0  0  0  0  0  0  0
   14.9607   15.3534    7.0662 H   0  0  0  0  0  0  0  0  0  0  0  0
   16.3665   14.2351    7.0662 H   0  0  0  0  0  0  0  0  0  0  0  0
  2  1  2  0
  3  2  1  0
  4  3  2  0
  5  4  1  0
  6  1  1  0
  6  5  2  0
  7  1  1  0
  9  7  1  0
  9  8  1  0
 10  9  2  0
 11  6  1  0
 12 11  1  0
 13 12  1  0
 14 12  1  0
 15 12  1  0
  2 16  1  0
  3 17  1  0
  4 18  1  0
  5 19  1  0
  7 20  1  0
  7 21  1  0
 11 22  1  0
 11 23  1  0
 13 24  1  0
 13 25  1  0
 13 26  1  0
 14 27  1  0
 14 28  1  0
 14 29  1  0
 15 30  1  0
 15 31  1  0
 15 32  1  0
M  CHG  1   8  -1
M  END
$$$$
=
     RDKit          3D

 18 18  0  0  0  0  0  0  0  0999 V2000
   20.4040   17.3150    4.3260 N   0  0  0  0  0  0  0  0  0  0  0  0
   19.7700   16.5260    5.1610 C   0  0  0  0  0  0  0  0  0  0  0  0
   18.3470   16.2610    5.2080 C   0  0  0  0  0  0  0  0  0  0  0  0
   17.3190   16.7440    6.0030 C   0  0  0  0  0  0  0  0  0  0  0  0
   16.1250   16.1120    5.5810 C   0  0  0  0  0  0  0  0  0  0  0  0
   16.4850   15.2760    4.5540 C   0  0  0  0  0  0  0  0  0  0  0  0
   17.8170   15.3540    4.3230 O   0  0  0  0  0  0  0  0  0  0  0  0
   20.6590   15.8000    6.1770 C   0  0  0  0  0  0  0  0  0  0  0  0
   20.3210   14.6120    6.4890 O   0  0  0  0  0  0  0  0  0  0  0  0
   21.6530   16.4600    6.6260 O   0  0  0  0  0  1  0  0  0  0  0  0
   19.8130   17.5110    2.1330 C   0  0  0  0  0  0  0  0  0  0  0  0
   19.5550   17.9940    3.4430 O   0  0  0  0  0  0  0  0  0  0  0  0
   17.4139   17.4825    6.8127 H   0  0  0  0  0  0  0  0  0  0  0  0
   15.1155   16.2605    5.9919 H   0  0  0  0  0  0  0  0  0  0  0  0
   15.7888   14.6324    3.9963 H   0  0  0  0  0  0  0  0  0  0  0  0
   20.3305   16.5423    2.1947 H   0  0  0  0  0  0  0  0  0  0  0  0
   18.8620   17.3851    1.5947 H   0  0  0  0  0  0  0  0  0  0  0  0
   20.4464   18.2314    1.5947 H   0  0  0  0  0  0  0  0  0  0  0  0
  2  1  2  0
  3  2  1  0
  4  3  2  0
  5  4  1  0
  6  5  2  0
  7  6  1  0
  7  3  1  0
  8  2  1  0
  9  8  2  0
 10  8  1  0
 12 11  1  0
 12  1  1  0
  4 13  1  0
  5 14  1  0
  6 15  1  0
 11 16  1  0
 11 17  1  0
 11 18  1  0
M  CHG  1  10  -1
M  END
$$$$
=
     RDKit          3D

 17 17  0  0  0  0  0  0  0  0999 V2000
   19.9320   15.3640    4.4500 C   0  0  0  0  0  0  0  0  0  0  0  0
   19.7690   14.6190    5.6110 C   0  0  0  0  0  0  0  0  0  0  0  0
   20.4970   14.9760    6.7280 C   0  0  0  0  0  0  0  0  0  0  0  0
   21.3610   16.0070    6.7650 N   0  0  0  0  0  0  0  0  0  0  0  0
   21.5290   16.7480    5.6240 C   0  0  0  0  0  0  0  0  0  0  0  0
   20.8200   16.4360    4.4570 C   0  0  0  0  0  0  0  0  0  0  0  0
   22.5040   17.9480    5.5880 C   0  0  0  0  0  0  0  0  0  0  0  0
   23.4000   18.0320    6.4900 O   0  0  0  0  0  0  0  0  0  0  0  0
   22.3450   18.7900    4.6390 O   0  0  0  0  0  1  0  0  0  0  0  0
   18.4910   13.7120    3.5490 C   0  0  0  0  0  0  0  0  0  0  0  0
   19.1780   14.9490    3.3840 O   0  0  0  0  0  0  0  0  0  0  0  0
   19.0763   13.7650    5.6395 H   0  0  0  0  0  0  0  0  0  0  0  0
   20.3627   14.3815    7.6437 H   0  0  0  0  0  0  0  0  0  0  0  0
   20.9647   17.0373    3.5473 H   0  0  0  0  0  0  0  0  0  0  0  0
   18.3725   13.4986    4.6216 H   0  0  0  0  0  0  0  0  0  0  0  0
   17.4998   13.7772    3.0764 H   0  0  0  0  0  0  0  0  0  0  0  0
   19.0702   12.9050    3.0764 H   0  0  0  0  0  0  0  0  0  0  0  0
  2  1  2  0
  3  2  1  0
  4  3  2  0
  5  4  1  0
  6  1  1  0
  6  5  2  0
  7  5  1  0
  8  7  2  0
  9  7  1  0
 11 10  1  0
 11  1  1  0
  2 12  1  0
  3 13  1  0
  6 14  1  0
 10 15  1  0
 10 16  1  0
 10 17  1  0
M  CHG  1   9  -1
M  END
$$$$
=
     RDKit          3D

 30 31  0  0  0  0  0  0  0  0999 V2000
   17.4060   16.3550    4.6960 C   0  0  2  0  0  0  0  0  0  0  0  0
   16.8930   16.3110    6.1390 C   0  0  0  0  0  0  0  0  0  0  0  0
   15.8890   13.2720    3.0020 C   0  0  0  0  0  0  0  0  0  0  0  0
   17.0130   12.4670    2.8200 C   0  0  0  0  0  0  0  0  0  0  0  0
   18.2680   12.9140    3.2380 C   0  0  0  0  0  0  0  0  0  0  0  0
   18.4060   14.1640    3.8410 C   0  0  0  0  0  0  0  0  0  0  0  0
   17.2910   14.9930    4.0280 C   0  0  0  0  0  0  0  0  0  0  0  0
   16.0330   14.5240    3.6080 C   0  0  0  0  0  0  0  0  0  0  0  0
   13.7360   12.5490    3.6960 C   0  0  0  0  0  0  0  0  0  0  0  0
   14.6050   12.9520    2.6470 O   0  0  0  0  0  0  0  0  0  0  0  0
   18.7530   16.9040    4.5740 N   0  0  0  0  0  0  0  0  0  0  0  0
   19.1590   17.5310    3.4510 N   0  0  0  0  0  0  0  0  0  0  0  0
   20.4320   17.8760    3.6260 N   0  0  0  0  0  0  0  0  0  0  0  0
   20.8230   17.4490    4.8750 C   0  0  0  0  0  0  0  0  0  0  0  0
   19.7550   16.8260    5.4900 C   0  0  0  0  0  0  0  0  0  0  0  0
   22.2600   17.6260    5.5230 C   0  0  0  0  0  0  0  0  0  0  0  0
   22.9970   18.5280    5.0090 O   0  0  0  0  0  0  0  0  0  0  0  0
   22.5650   16.8670    6.4940 O   0  0  0  0  0  1  0  0  0  0  0  0
   16.7501   17.0563    4.1594 H   0  0  0  0  0  0  0  0  0  0  0  0
   17.7434   16.3839    6.8329 H   0  0  0  0  0  0  0  0  0  0  0  0
   16.2069   17.1536    6.3101 H   0  0  0  0  0  0  0  0  0  0  0  0
   16.3604   15.3639    6.3101 H   0  0  0  0  0  0  0  0  0  0  0  0
   16.9109   11.4792    2.3468 H   0  0  0  0  0  0  0  0  0  0  0  0
   19.1526   12.2769    3.0909 H   0  0  0  0  0  0  0  0  0  0  0  0
   19.3986   14.5025    4.1728 H   0  0  0  0  0  0  0  0  0  0  0  0
   15.1447   15.1548    3.7593 H   0  0  0  0  0  0  0  0  0  0  0  0
   14.2065   12.7672    4.6661 H   0  0  0  0  0  0  0  0  0  0  0  0
   12.7865   13.0987    3.6171 H   0  0  0  0  0  0  0  0  0  0  0  0
   13.5422   11.4691    3.6171 H   0  0  0  0  0  0  0  0  0  0  0  0
   19.7223   16.3711    6.4910 H   0  0  0  0  0  0  0  0  0  0  0  0
  2  1  1  0
  4  3  2  0
  5  4  1  0
  6  5  2  0
  7  6  1  0
  7  1  1  0
  8  3  1  0
  8  7  2  0
 10  9  1  0
 10  3  1  0
 11  1  1  0
 12 11  1  0
 13 12  2  0
 14 13  1  0
 15 14  2  0
 15 11  1  0
 16 14  1  0
 17 16  2  0
 18 16  1  0
  1 19  1  6
  2 20  1  0
  2 21  1  0
  2 22  1  0
  4 23  1  0
  5 24  1  0
  6 25  1  0
  8 26  1  0
  9 27  1  0
  9 28  1  0
  9 29  1  0
 15 30  1  0
M  CHG  1  18  -1
M  END
$$$$
=
     RDKit          3D

 31 31  0  0  0  0  0  0  0  0999 V2000
   17.5300   15.8800    4.5940 C   0  0  2  0  0  0  0  0  0  0  0  0
   21.2620   16.7070    5.0280 C   0  0  0  0  0  0  0  0  0  0  0  0
   21.6070   15.8350    6.0600 C   0  0  0  0  0  0  0  0  0  0  0  0
   20.6410   14.9960    6.6190 C   0  0  0  0  0  0  0  0  0  0  0  0
   19.3310   15.0170    6.1430 C   0  0  0  0  0  0  0  0  0  0  0  0
   18.9670   15.8720    5.0920 C   0  0  0  0  0  0  0  0  0  0  0  0
   19.9450   16.7240    4.5540 C   0  0  0  0  0  0  0  0  0  0  0  0
   23.0340   18.2760    5.2280 C   0  0  0  0  0  0  0  0  0  0  0  0
   22.1070   17.5860    4.4020 O   0  0  0  0  0  0  0  0  0  0  0  0
   16.5310   16.4790    5.6050 C   0  0  0  0  0  0  0  0  0  0  0  0
   17.0780   17.4450    6.3840 F   0  0  0  0  0  0  0  0  0  0  0  0
   15.4550   17.0310    4.9880 F   0  0  0  0  0  0  0  0  0  0  0  0
   16.0450   15.5310    6.4470 F   0  0  0  0  0  0  0  0  0  0  0  0
   17.1940   14.5170    4.2510 O   0  0  0  0  0  0  0  0  0  0  0  0
   16.2350   14.4300    3.1850 C   0  0  0  0  0  0  0  0  0  0  0  0
   14.9140   13.8580    3.6730 C   0  0  0  0  0  0  0  0  0  0  0  0
   14.8830   12.3890    3.2820 C   0  0  0  0  0  0  0  0  0  0  0  0
   15.7000   12.0550    2.3800 O   0  0  0  0  0  0  0  0  0  0  0  0
   14.0560   11.6810    3.9220 O   0  0  0  0  0  1  0  0  0  0  0  0
   17.4539   16.5391    3.7166 H   0  0  0  0  0  0  0  0  0  0  0  0
   22.6411   15.8081    6.4340 H   0  0  0  0  0  0  0  0  0  0  0  0
   20.9149   14.3154    7.4386 H   0  0  0  0  0  0  0  0  0  0  0  0
   18.5760   14.3573    6.5955 H   0  0  0  0  0  0  0  0  0  0  0  0
   19.6712   17.4175    3.7452 H   0  0  0  0  0  0  0  0  0  0  0  0
   22.7895   18.0940    6.2849 H   0  0  0  0  0  0  0  0  0  0  0  0
   24.0514   17.9137    5.0194 H   0  0  0  0  0  0  0  0  0  0  0  0
   22.9789   19.3546    5.0194 H   0  0  0  0  0  0  0  0  0  0  0  0
   16.0604   15.4367    2.7776 H   0  0  0  0  0  0  0  0  0  0  0  0
   16.6375   13.7601    2.4109 H   0  0  0  0  0  0  0  0  0  0  0  0
   14.8419   13.9578    4.7661 H   0  0  0  0  0  0  0  0  0  0  0  0
   14.0673   14.3976    3.2238 H   0  0  0  0  0  0  0  0  0  0  0  0
  3  2  2  0
  4  3  1  0
  5  4  2  0
  6  1  1  0
  6  5  1  0
  7  6  2  0
  7  2  1  0
  9  2  1  0
  9  8  1  0
 10  1  1  0
 11 10  1  0
 12 10  1  0
 13 10  1  0
 14  1  1  0
 15 14  1  0
 16 15  1  0
 17 16  1  0
 18 17  2  0
 19 17  1  0
  1 20  1  6
  3 21  1  0
  4 22  1  0
  5 23  1  0
  7 24  1  0
  8 25  1  0
  8 26  1  0
  8 27  1  0
 15 28  1  0
 15 29  1  0
 16 30  1  0
 16 31  1  0
M  CHG  1  19  -1
M  END
$$$$
=
     RDKit          3D

 30 31  0  0  0  0  0  0  0  0999 V2000
   20.1850   16.3420    5.2780 C   0  0  2  0  0  0  0  0  0  0  0  0
   20.8590   17.7180    5.4030 C   0  0  0  0  0  0  0  0  0  0  0  0
   19.4710   18.3250    5.1660 C   0  0  0  0  0  0  0  0  0  0  0  0
   18.8610   17.0510    5.5090 N   0  0  1  0  0  4  0  0  0  0  0  0
   21.4420   15.7730    7.1720 O   0  0  0  0  0  1  0  0  0  0  0  0
   20.4770   15.3860    6.4370 C   0  0  0  0  0  0  0  0  0  0  0  0
   19.7610   14.3580    6.5570 O   0  0  0  0  0  0  0  0  0  0  0  0
   17.8220   16.5960    4.5660 C   0  0  0  0  0  0  0  0  0  0  0  0
   16.5120   16.2800    5.2930 C   0  0  0  0  0  0  0  0  0  0  0  0
   15.7650   15.1770    4.5850 C   0  0  0  0  0  0  0  0  0  0  0  0
   16.3820   14.4490    3.5590 C   0  0  0  0  0  0  0  0  0  0  0  0
   15.6810   13.4520    2.8810 C   0  0  0  0  0  0  0  0  0  0  0  0
   14.3580   13.1740    3.2190 C   0  0  0  0  0  0  0  0  0  0  0  0
   13.7350   13.8930    4.2380 C   0  0  0  0  0  0  0  0  0  0  0  0
   14.4340   14.8910    4.9190 C   0  0  0  0  0  0  0  0  0  0  0  0
   20.3967   15.6976    4.4120 H   0  0  0  0  0  0  0  0  0  0  0  0
   21.2930   17.9310    6.3911 H   0  0  0  0  0  0  0  0  0  0  0  0
   21.7312   17.9988    4.7943 H   0  0  0  0  0  0  0  0  0  0  0  0
   19.2156   19.1455    5.8527 H   0  0  0  0  0  0  0  0  0  0  0  0
   19.2330   18.8195    4.2127 H   0  0  0  0  0  0  0  0  0  0  0  0
   18.3521   16.9630    6.4002 H   0  0  0  0  0  0  0  0  0  0  0  0
   17.6387   17.3881    3.8250 H   0  0  0  0  0  0  0  0  0  0  0  0
   18.1768   15.6782    4.0743 H   0  0  0  0  0  0  0  0  0  0  0  0
   16.7370   15.9619    6.3217 H   0  0  0  0  0  0  0  0  0  0  0  0
   15.8848   17.1836    5.3029 H   0  0  0  0  0  0  0  0  0  0  0  0
   17.4256   14.6652    3.2866 H   0  0  0  0  0  0  0  0  0  0  0  0
   16.1734   12.8840    2.0779 H   0  0  0  0  0  0  0  0  0  0  0  0
   13.8060   12.3883    2.6825 H   0  0  0  0  0  0  0  0  0  0  0  0
   12.6909   13.6735    4.5058 H   0  0  0  0  0  0  0  0  0  0  0  0
   13.9378   15.4560    5.7219 H   0  0  0  0  0  0  0  0  0  0  0  0
  2  1  1  0
  3  2  1  0
  4  1  1  0
  4  3  1  0
  6  1  1  0
  6  5  1  0
  7  6  2  0
  8  4  1  0
  9  8  1  0
 10  9  1  0
 11 10  2  0
 12 11  1  0
 13 12  2  0
 14 13  1  0
 15 14  2  0
 15 10  1  0
  1 16  1  6
  2 17  1  0
  2 18  1  0
  3 19  1  0
  3 20  1  0
  4 21  1  1
  8 22  1  0
  8 23  1  0
  9 24  1  0
  9 25  1  0
 11 26  1  0
 12 27  1  0
 13 28  1  0
 14 29  1  0
 15 30  1  0
M  CHG  2   4   1   5  -1
M  END
$$$$
=
     RDKit          3D

 31 33  0  0  0  0  0  0  0  0999 V2000
   18.2250   14.3670    3.9120 S   0  0  0  0  0  0  0  0  0  0  0  0
   19.5100   15.4610    4.2960 C   0  0  0  0  0  0  0  0  0  0  0  0
   20.3220   15.3540    5.3240 N   0  0  0  0  0  0  0  0  0  0  0  0
   21.1420   16.4550    5.2370 C   0  0  0  0  0  0  0  0  0  0  0  0
   20.8110   17.2450    4.1430 C   0  0  0  0  0  0  0  0  0  0  0  0
   19.7540   16.5900    3.5630 N   0  0  0  0  0  0  0  0  0  0  0  0
   21.4820   18.4230    3.8110 C   0  0  0  0  0  0  0  0  0  0  0  0
   22.5390   18.8000    4.6480 C   0  0  0  0  0  0  0  0  0  0  0  0
   22.8960   18.0290    5.7580 C   0  0  0  0  0  0  0  0  0  0  0  0
   22.2030   16.8500    6.0660 C   0  0  0  0  0  0  0  0  0  0  0  0
   16.7180   15.4080    4.1100 C   0  0  1  0  0  0  0  0  0  0  0  0
   15.4540   14.6060    3.8580 C   0  0  0  0  0  0  0  0  0  0  0  0
   15.5350   13.3910    3.1530 C   0  0  0  0  0  0  0  0  0  0  0  0
   14.3960   12.6140    2.9250 C   0  0  0  0  0  0  0  0  0  0  0  0
   13.1570   13.0350    3.4020 C   0  0  0  0  0  0  0  0  0  0  0  0
   13.0590   14.2310    4.1070 C   0  0  0  0  0  0  0  0  0  0  0  0
   14.1980   15.0070    4.3370 C   0  0  0  0  0  0  0  0  0  0  0  0
   16.7510   15.4060    6.5370 O   0  0  0  0  0  1  0  0  0  0  0  0
   16.8730   16.0970    5.4880 C   0  0  0  0  0  0  0  0  0  0  0  0
   17.1400   17.3450    5.4120 O   0  0  0  0  0  0  0  0  0  0  0  0
   19.2369   16.8939    2.7257 H   0  0  0  0  0  0  0  0  0  0  0  0
   21.1949   19.0247    2.9360 H   0  0  0  0  0  0  0  0  0  0  0  0
   23.0994   19.7206    4.4279 H   0  0  0  0  0  0  0  0  0  0  0  0
   23.7309   18.3513    6.3976 H   0  0  0  0  0  0  0  0  0  0  0  0
   22.4856   16.2460    6.9409 H   0  0  0  0  0  0  0  0  0  0  0  0
   16.6134   16.2016    3.3555 H   0  0  0  0  0  0  0  0  0  0  0  0
   16.5095   13.0476    2.7756 H   0  0  0  0  0  0  0  0  0  0  0  0
   14.4781   11.6689    2.3682 H   0  0  0  0  0  0  0  0  0  0  0  0
   12.2596   12.4247    3.2223 H   0  0  0  0  0  0  0  0  0  0  0  0
   12.0817   14.5664    4.4844 H   0  0  0  0  0  0  0  0  0  0  0  0
   14.1084   15.9465    4.9022 H   0  0  0  0  0  0  0  0  0  0  0  0
  2  1  1  0
  3  2  2  0
  4  3  1  0
  5  4  2  0
  6  2  1  0
  6  5  1  0
  7  5  1  0
  8  7  2  0
  9  8  1  0
 10  4  1  0
 10  9  2  0
 11  1  1  0
 12 11  1  0
 13 12  2  0
 14 13  1  0
 15 14  2  0
 16 15  1  0
 17 16  2  0
 17 12  1  0
 19 11  1  0
 19 18  1  0
 20 19  2  0
  6 21  1  0
  7 22  1  0
  8 23  1  0
  9 24  1  0
 10 25  1  0
 11 26  1  6
 13 27  1  0
 14 28  1  0
 15 29  1  0
 16 30  1  0
 17 31  1  0
M  CHG  1  18  -1
M  END
$$$$
=
     RDKit          3D

 37 38  0  0  0  0  0  0  0  0999 V2000
   26.9170   26.2130   15.2320 C   0  0  2  0  0  0  0  0  0  0  0  0
   26.5160   24.8300   14.6690 C   0  0  2  0  0  0  0  0  0  0  0  0
   27.9170   25.0420   15.1410 C   0  0  1  0  0  0  0  0  0  0  0  0
   26.1500   24.5220   13.2340 C   0  0  0  0  0  0  0  0  0  0  0  0
   25.4620   25.4420   12.4200 C   0  0  0  0  0  0  0  0  0  0  0  0
   25.1610   25.1680   11.0790 C   0  0  0  0  0  0  0  0  0  0  0  0
   25.5730   23.9710   10.5080 C   0  0  0  0  0  0  0  0  0  0  0  0
   26.2930   23.0710   11.2790 C   0  0  0  0  0  0  0  0  0  0  0  0
   26.5900   23.3430   12.6120 C   0  0  0  0  0  0  0  0  0  0  0  0
   26.7220   21.9280   10.7260 F   0  0  0  0  0  0  0  0  0  0  0  0
   26.7040   26.5010   16.6640 C   0  0  0  0  0  0  0  0  0  0  0  0
   27.7250   26.7000   17.3910 O   0  0  0  0  0  0  0  0  0  0  0  0
   25.4930   26.6210   17.0360 O   0  0  0  0  0  1  0  0  0  0  0  0
   29.3320   25.2850   14.0830 S   0  0  0  0  0  6  0  0  0  0  0  0
   28.9630   26.0170   12.8860 O   0  0  0  0  0  0  0  0  0  0  0  0
   29.9580   23.9790   13.9470 O   0  0  0  0  0  0  0  0  0  0  0  0
   30.4360   26.3160   15.0290 C   0  0  0  0  0  0  0  0  0  0  0  0
   30.8510   25.7010   16.3510 C   0  0  0  0  0  0  0  0  0  0  0  0
   26.9680   27.4210   14.3190 C   0  0  0  0  0  0  0  0  0  0  0  0
   28.2020   29.4290   13.9210 C   0  0  0  0  0  0  0  0  0  0  0  0
   27.6580   28.5440   14.8850 O   0  0  0  0  0  0  0  0  0  0  0  0
   25.7048   24.1229   14.8970 H   0  0  0  0  0  0  0  0  0  0  0  0
   28.5466   24.4438   15.8161 H   0  0  0  0  0  0  0  0  0  0  0  0
   25.1511   26.4056   12.8499 H   0  0  0  0  0  0  0  0  0  0  0  0
   24.5994   25.8998   10.4798 H   0  0  0  0  0  0  0  0  0  0  0  0
   25.3318   23.7403    9.4599 H   0  0  0  0  0  0  0  0  0  0  0  0
   27.1822   22.6183   13.1901 H   0  0  0  0  0  0  0  0  0  0  0  0
   31.3406   26.4990   14.4305 H   0  0  0  0  0  0  0  0  0  0  0  0
   29.8943   27.2452   15.2594 H   0  0  0  0  0  0  0  0  0  0  0  0
   30.4455   26.3019   17.1783 H   0  0  0  0  0  0  0  0  0  0  0  0
   30.4598   24.6750   16.4170 H   0  0  0  0  0  0  0  0  0  0  0  0
   31.9488   25.6798   16.4170 H   0  0  0  0  0  0  0  0  0  0  0  0
   27.4797   27.1319   13.3891 H   0  0  0  0  0  0  0  0  0  0  0  0
   25.9286   27.7368   14.1460 H   0  0  0  0  0  0  0  0  0  0  0  0
   28.7122   30.2590   14.4318 H   0  0  0  0  0  0  0  0  0  0  0  0
   28.9232   28.8872   13.2915 H   0  0  0  0  0  0  0  0  0  0  0  0
   27.3929   29.8278   13.2915 H   0  0  0  0  0  0  0  0  0  0  0  0
  2  1  1  0
  3  2  1  0
  3  1  1  0
  4  2  1  0
  5  4  2  0
  6  5  1  0
  7  6  2  0
  8  7  1  0
  9  8  2  0
  9  4  1  0
 10  8  1  0
  1 11  1  1
 12 11  2  0
 13 11  1  0
 14  3  1  0
 15 14  2  0
 16 14  2  0
 17 14  1  0
 18 17  1  0
 19  1  1  0
 21 19  1  0
 21 20  1  0
  2 22  1  1
  3 23  1  1
  5 24  1  0
  6 25  1  0
  7 26  1  0
  9 27  1  0
 17 28  1  0
 17 29  1  0
 18 30  1  0
 18 31  1  0
 18 32  1  0
 19 33  1  0
 19 34  1  0
 20 35  1  0
 20 36  1  0
 20 37  1  0
M  CHG  1  13  -1
M  END
$$$$
=
     RDKit          3D

 56 59  0  0  0  0  0  0  0  0999 V2000
   24.9800   27.1960   16.1140 N   0  0  0  0  0  0  0  0  0  0  0  0
   24.5860   27.1300   14.7280 C   0  0  2  0  0  0  0  0  0  0  0  0
   23.1130   26.9320   14.8450 C   0  0  0  0  0  0  0  0  0  0  0  0
   22.6540   26.7660   16.0990 C   0  0  0  0  0  0  0  0  0  0  0  0
   23.9200   26.8560   16.9490 C   0  0  0  0  0  0  0  0  0  0  0  0
   24.0170   26.6470   18.1510 O   0  0  0  0  0  0  0  0  0  0  0  0
   21.5200   26.5930   16.6230 O   0  0  0  0  0  1  0  0  0  0  0  0
   25.2650   26.0020   13.9520 C   0  0  0  0  0  0  0  0  0  0  0  0
   24.9750   24.6390   14.2230 C   0  0  0  0  0  0  0  0  0  0  0  0
   25.5880   23.6080   13.5030 C   0  0  0  0  0  0  0  0  0  0  0  0
   26.4800   23.9630   12.5180 C   0  0  0  0  0  0  0  0  0  0  0  0
   26.7640   25.2780   12.2350 C   0  0  0  0  0  0  0  0  0  0  0  0
   26.1740   26.3150   12.9260 C   0  0  0  0  0  0  0  0  0  0  0  0
   27.6660   25.4090   11.2240 O   0  0  0  0  0  0  0  0  0  0  0  0
   27.9300   24.0270   10.9210 C   0  0  0  0  0  0  0  0  0  0  0  0
   27.1680   23.1000   11.7200 O   0  0  0  0  0  0  0  0  0  0  0  0
   22.3260   27.0050   13.5890 C   0  0  0  0  0  0  0  0  0  0  0  0
   22.1090   28.1010   13.0650 O   0  0  0  0  0  0  0  0  0  0  0  0
   21.8670   25.7750   12.8860 C   0  0  0  0  0  0  0  0  0  0  0  0
   20.9790   24.8600   13.4570 C   0  0  0  0  0  0  0  0  0  0  0  0
   20.6320   23.6890   12.7750 C   0  0  0  0  0  0  0  0  0  0  0  0
   21.1910   23.4000   11.5240 C   0  0  0  0  0  0  0  0  0  0  0  0
   22.0830   24.3130   10.9530 C   0  0  0  0  0  0  0  0  0  0  0  0
   22.4260   25.4850   11.6330 C   0  0  0  0  0  0  0  0  0  0  0  0
   20.7790   22.1670   10.7780 C   0  0  0  0  0  0  0  0  0  0  0  0
   26.3640   27.2400   16.5700 C   0  0  0  0  0  0  0  0  0  0  0  0
   27.1110   28.5290   16.2050 C   0  0  0  0  0  0  0  0  0  0  0  0
   28.2720   28.2470   15.2430 C   0  0  0  0  0  0  0  0  0  0  0  0
   29.1380   27.0620   15.6910 C   0  0  0  0  0  0  0  0  0  0  0  0
   29.5970   26.1570   14.5490 C   0  0  0  0  0  0  0  0  0  0  0  0
   28.4600   24.3700   15.5810 O   0  0  0  0  0  1  0  0  0  0  0  0
   29.3190   24.6540   14.6950 C   0  0  0  0  0  0  0  0  0  0  0  0
   29.9780   23.8770   13.9520 O   0  0  0  0  0  0  0  0  0  0  0  0
   24.8783   28.0215   14.1537 H   0  0  0  0  0  0  0  0  0  0  0  0
   24.2539   24.3885   15.0150 H   0  0  0  0  0  0  0  0  0  0  0  0
   25.3649   22.5523   13.7167 H   0  0  0  0  0  0  0  0  0  0  0  0
   26.4086   27.3613   12.6807 H   0  0  0  0  0  0  0  0  0  0  0  0
   27.6887   23.8519    9.8622 H   0  0  0  0  0  0  0  0  0  0  0  0
   28.9915   23.8468   11.1465 H   0  0  0  0  0  0  0  0  0  0  0  0
   20.5498   25.0617   14.4495 H   0  0  0  0  0  0  0  0  0  0  0  0
   19.9133   22.9887   13.2256 H   0  0  0  0  0  0  0  0  0  0  0  0
   22.5171   24.1078    9.9633 H   0  0  0  0  0  0  0  0  0  0  0  0
   23.1418   26.1871   11.1806 H   0  0  0  0  0  0  0  0  0  0  0  0
   20.5146   21.3758   11.4950 H   0  0  0  0  0  0  0  0  0  0  0  0
   19.9082   22.3948   10.1457 H   0  0  0  0  0  0  0  0  0  0  0  0
   21.6119   21.8255   10.1457 H   0  0  0  0  0  0  0  0  0  0  0  0
   26.3687   27.1381   17.6653 H   0  0  0  0  0  0  0  0  0  0  0  0
   26.8886   26.4183   16.0605 H   0  0  0  0  0  0  0  0  0  0  0  0
   26.4089   29.2262   15.7246 H   0  0  0  0  0  0  0  0  0  0  0  0
   27.5224   28.9649   17.1273 H   0  0  0  0  0  0  0  0  0  0  0  0
   27.8586   28.0245   14.2482 H   0  0  0  0  0  0  0  0  0  0  0  0
   28.9140   29.1401   15.2263 H   0  0  0  0  0  0  0  0  0  0  0  0
   30.0304   27.4585   16.1974 H   0  0  0  0  0  0  0  0  0  0  0  0
   28.5126   26.4447   16.3527 H   0  0  0  0  0  0  0  0  0  0  0  0
   29.0952   26.4996   13.6321 H   0  0  0  0  0  0  0  0  0  0  0  0
   30.6934   26.2447   14.5384 H   0  0  0  0  0  0  0  0  0  0  0  0
  2  1  1  0
  3  2  1  0
  4  3  2  0
  5  4  1  0
  5  1  1  0
  6  5  2  0
  7  4  1  0
  8  2  1  0
  9  8  2  0
 10  9  1  0
 11 10  2  0
 12 11  1  0
 13 12  2  0
 13  8  1  0
 14 12  1  0
 15 14  1  0
 16 11  1  0
 16 15  1  0
 17  3  1  0
 18 17  2  0
 19 17  1  0
 20 19  2  0
 21 20  1  0
 22 21  2  0
 23 22  1  0
 24 23  2  0
 24 19  1  0
 25 22  1  0
 26  1  1  0
 27 26  1  0
 28 27  1  0
 29 28  1  0
 30 29  1  0
 32 31  1  0
 32 30  1  0
 33 32  2  0
  2 34  1  6
  9 35  1  0
 10 36  1  0
 13 37  1  0
 15 38  1  0
 15 39  1  0
 20 40  1  0
 21 41  1  0
 23 42  1  0
 24 43  1  0
 25 44  1  0
 25 45  1  0
 25 46  1  0
 26 47  1  0
 26 48  1  0
 27 49  1  0
 27 50  1  0
 28 51  1  0
 28 52  1  0
 29 53  1  0
 29 54  1  0
 30 55  1  0
 30 56  1  0
M  CHG  2   7  -1  31  -1
M  END
$$$$
=
     RDKit          3D

 37 40  0  0  0  0  0  0  0  0999 V2000
   27.1970   24.5220   12.0980 C   0  0  0  0  0  0  0  0  0  0  0  0
   26.4660   23.3810   12.4100 C   0  0  0  0  0  0  0  0  0  0  0  0
   25.6350   23.3720   13.5290 C   0  0  0  0  0  0  0  0  0  0  0  0
   25.5070   24.5140   14.3300 C   0  0  0  0  0  0  0  0  0  0  0  0
   26.1780   25.6970   14.0000 C   0  0  0  0  0  0  0  0  0  0  0  0
   27.0270   25.6700   12.8770 C   0  0  0  0  0  0  0  0  0  0  0  0
   27.7400   26.8350   12.5240 O   0  0  0  0  0  0  0  0  0  0  0  0
   28.0080   27.8360   13.4560 C   0  0  0  0  0  0  0  0  0  0  0  0
   28.3970   28.9430   13.0900 O   0  0  0  0  0  0  0  0  0  0  0  0
   27.6230   27.4970   14.9020 C   0  0  2  0  0  0  0  0  0  0  0  0
   26.1360   27.0140   14.7670 C   0  0  2  0  0  0  0  0  0  0  0  0
   25.3070   27.1290   16.0260 C   0  0  0  0  0  0  0  0  0  0  0  0
   23.6020   26.6770   16.1150 S   0  0  0  0  0  0  0  0  0  0  0  0
   23.4660   27.2940   17.7620 C   0  0  0  0  0  0  0  0  0  0  0  0
   22.4590   27.2450   18.4460 O   0  0  0  0  0  0  0  0  0  0  0  0
   24.6720   27.8420   18.0950 N   0  0  0  0  0  0  0  0  0  0  0  0
   25.6480   27.7850   17.1460 C   0  0  0  0  0  0  0  0  0  0  0  0
   27.0890   28.6380   17.4370 S   0  0  0  0  0  0  0  0  0  0  0  0
   27.6810   28.8140   15.7130 C   0  0  0  0  0  0  0  0  0  0  0  0
   28.6160   23.1320   10.8870 C   0  0  0  0  0  0  0  0  0  0  0  0
   28.0290   24.4330   11.0140 O   0  0  0  0  0  0  0  0  0  0  0  0
   28.5780   26.4350   15.5210 C   0  0  0  0  0  0  0  0  0  0  0  0
   30.0250   26.7450   15.1600 C   0  0  0  0  0  0  0  0  0  0  0  0
   30.4900   26.0300   14.2310 O   0  0  0  0  0  0  0  0  0  0  0  0
   30.5560   27.6690   15.8280 O   0  0  0  0  0  1  0  0  0  0  0  0
   26.5435   22.4865   11.7744 H   0  0  0  0  0  0  0  0  0  0  0  0
   25.0750   22.4605   13.7852 H   0  0  0  0  0  0  0  0  0  0  0  0
   24.8724   24.4806   15.2279 H   0  0  0  0  0  0  0  0  0  0  0  0
   25.5224   27.7041   14.1693 H   0  0  0  0  0  0  0  0  0  0  0  0
   24.8350   28.2755   19.0150 H   0  0  0  0  0  0  0  0  0  0  0  0
   27.0559   29.5633   15.2052 H   0  0  0  0  0  0  0  0  0  0  0  0
   28.7374   29.1163   15.7633 H   0  0  0  0  0  0  0  0  0  0  0  0
   28.8040   22.7153   11.8875 H   0  0  0  0  0  0  0  0  0  0  0  0
   27.9286   22.4716   10.3380 H   0  0  0  0  0  0  0  0  0  0  0  0
   29.5660   23.2104   10.3380 H   0  0  0  0  0  0  0  0  0  0  0  0
   28.4681   26.4433   16.6155 H   0  0  0  0  0  0  0  0  0  0  0  0
   28.3157   25.4443   15.1214 H   0  0  0  0  0  0  0  0  0  0  0  0
  2  1  2  0
  3  2  1  0
  4  3  2  0
  5  4  1  0
  6  5  2  0
  6  1  1  0
  7  6  1  0
  8  7  1  0
  9  8  2  0
 10  8  1  0
 11  5  1  0
 11 10  1  0
 12 11  1  0
 13 12  1  0
 14 13  1  0
 15 14  2  0
 16 14  1  0
 17 12  2  0
 17 16  1  0
 18 17  1  0
 19 18  1  0
 19 10  1  0
 21  1  1  0
 21 20  1  0
 10 22  1  1
 23 22  1  0
 24 23  2  0
 25 23  1  0
  2 26  1  0
  3 27  1  0
  4 28  1  0
 11 29  1  6
 16 30  1  0
 19 31  1  0
 19 32  1  0
 20 33  1  0
 20 34  1  0
 20 35  1  0
 22 36  1  0
 22 37  1  0
M  CHG  1  25  -1
M  END
$$$$
=
     RDKit          3D

 33 35  0  0  0  0  0  0  0  0999 V2000
   22.6640   24.4560   11.1880 O   0  0  0  0  0  0  0  0  0  0  0  0
   23.7670   24.8780   11.5350 C   0  0  0  0  0  0  0  0  0  0  0  0
   23.9210   26.2960   12.0790 C   0  0  0  0  0  0  0  0  0  0  0  0
   25.0450   26.4600   13.1180 C   0  0  2  0  0  0  0  0  0  0  0  0
   26.2540   25.7250   12.6190 C   0  0  0  0  0  0  0  0  0  0  0  0
   26.1340   24.5960   11.8420 C   0  0  0  0  0  0  0  0  0  0  0  0
   24.9230   24.1640   11.3630 N   0  0  0  0  0  0  0  0  0  0  0  0
   27.3870   23.9940   11.7390 C   0  0  0  0  0  0  0  0  0  0  0  0
   28.2680   24.7800   12.4530 C   0  0  0  0  0  0  0  0  0  0  0  0
   27.5930   25.8780   12.9590 N   0  0  0  0  0  0  0  0  0  0  0  0
   28.2150   26.9280   13.6940 C   0  0  0  0  0  0  0  0  0  0  0  0
   27.8880   28.2610   13.4070 C   0  0  0  0  0  0  0  0  0  0  0  0
   28.4870   29.3030   14.1200 C   0  0  0  0  0  0  0  0  0  0  0  0
   29.4000   29.0200   15.1340 C   0  0  0  0  0  0  0  0  0  0  0  0
   29.7060   27.6970   15.4440 C   0  0  0  0  0  0  0  0  0  0  0  0
   29.1120   26.6510   14.7300 C   0  0  0  0  0  0  0  0  0  0  0  0
   24.5770   25.9540   14.4840 C   0  0  0  0  0  0  0  0  0  0  0  0
   23.2480   26.0620   14.6750 F   0  0  0  0  0  0  0  0  0  0  0  0
   25.1800   26.6680   15.4700 F   0  0  0  0  0  0  0  0  0  0  0  0
   24.9250   24.6620   14.6860 F   0  0  0  0  0  0  0  0  0  0  0  0
   27.7010   22.6640   10.9730 C   0  0  0  0  0  0  0  0  0  0  0  0
   28.9060   22.4770   10.6230 O   0  0  0  0  0  0  0  0  0  0  0  0
   26.7080   21.8950   10.7760 O   0  0  0  0  0  1  0  0  0  0  0  0
   24.1330   26.9675   11.2340 H   0  0  0  0  0  0  0  0  0  0  0  0
   22.9797   26.5386   12.5939 H   0  0  0  0  0  0  0  0  0  0  0  0
   25.3082   27.5200   13.2492 H   0  0  0  0  0  0  0  0  0  0  0  0
   24.8817   23.2690   10.8549 H   0  0  0  0  0  0  0  0  0  0  0  0
   29.3376   24.5679   12.5974 H   0  0  0  0  0  0  0  0  0  0  0  0
   27.1567   28.4875   12.6171 H   0  0  0  0  0  0  0  0  0  0  0  0
   28.2376   30.3473   13.8806 H   0  0  0  0  0  0  0  0  0  0  0  0
   29.8785   29.8404   15.6889 H   0  0  0  0  0  0  0  0  0  0  0  0
   30.4172   27.4740   16.2530 H   0  0  0  0  0  0  0  0  0  0  0  0
   29.3513   25.6079   14.9843 H   0  0  0  0  0  0  0  0  0  0  0  0
  2  1  2  0
  3  2  1  0
  4  3  1  0
  5  4  1  0
  6  5  2  0
  7  6  1  0
  7  2  1  0
  8  6  1  0
  9  8  2  0
 10  5  1  0
 10  9  1  0
 11 10  1  0
 12 11  2  0
 13 12  1  0
 14 13  2  0
 15 14  1  0
 16 11  1  0
 16 15  2  0
 17  4  1  0
 18 17  1  0
 19 17  1  0
 20 17  1  0
 21  8  1  0
 22 21  2  0
 23 21  1  0
  3 24  1  0
  3 25  1  0
  4 26  1  1
  7 27  1  0
  9 28  1  0
 12 29  1  0
 13 30  1  0
 14 31  1  0
 15 32  1  0
 16 33  1  0
M  CHG  1  23  -1
M  END
$$$$
=
     RDKit          3D

 44 43  0  0  0  0  0  0  0  0999 V2000
   17.2770   13.9960    3.7520 C   0  0  2  0  0  0  0  0  0  0  0  0
   18.4260   14.9070    3.6010 N   0  0  0  0  0  0  0  0  0  0  0  0
   19.2680   15.3030    4.5790 C   0  0  0  0  0  0  0  0  0  0  0  0
   19.1280   15.0840    5.7740 O   0  0  0  0  0  0  0  0  0  0  0  0
   20.2870   16.0030    4.0250 O   0  0  0  0  0  0  0  0  0  0  0  0
   20.1530   17.4180    3.7530 C   0  0  0  0  0  0  0  0  0  0  0  0
   19.2890   18.1130    4.8120 C   0  0  0  0  0  0  0  0  0  0  0  0
   19.6310   17.6660    2.3330 C   0  0  0  0  0  0  0  0  0  0  0  0
   21.5840   17.9710    3.8510 C   0  0  0  0  0  0  0  0  0  0  0  0
   17.5130   12.6350    3.0160 C   0  0  0  0  0  0  0  0  0  0  0  0
   16.6950   12.3470    2.0990 O   0  0  0  0  0  0  0  0  0  0  0  0
   18.5080   11.9770    3.4530 O   0  0  0  0  0  1  0  0  0  0  0  0
   15.9640   14.6560    3.3130 C   0  0  0  0  0  0  0  0  0  0  0  0
   15.3420   15.5670    4.3810 C   0  0  0  0  0  0  0  0  0  0  0  0
   13.8080   15.5810    4.3200 C   0  0  0  0  0  0  0  0  0  0  0  0
   13.1600   14.2340    4.6750 C   0  0  0  0  0  0  0  0  0  0  0  0
   11.9670   13.8400    3.8070 C   0  0  0  0  0  0  0  0  0  0  0  0
   11.0820   12.0050    2.2310 C   0  0  0  0  0  0  0  0  0  0  0  0
   12.2670   12.6970    2.8530 C   0  0  0  0  0  0  0  0  0  0  0  0
   13.4170   12.3790    2.5460 O   0  0  0  0  0  0  0  0  0  0  0  0
   17.1843   13.7726    4.8251 H   0  0  0  0  0  0  0  0  0  0  0  0
   18.6038   15.2778    2.6566 H   0  0  0  0  0  0  0  0  0  0  0  0
   19.6405   17.8302    5.8152 H   0  0  0  0  0  0  0  0  0  0  0  0
   19.3663   19.2035    4.6902 H   0  0  0  0  0  0  0  0  0  0  0  0
   18.2404   17.8038    4.6902 H   0  0  0  0  0  0  0  0  0  0  0  0
   18.6385   18.1375    2.3843 H   0  0  0  0  0  0  0  0  0  0  0  0
   20.3254   18.3305    1.7979 H   0  0  0  0  0  0  0  0  0  0  0  0
   19.5546   16.7080    1.7979 H   0  0  0  0  0  0  0  0  0  0  0  0
   21.8636   18.0791    4.9094 H   0  0  0  0  0  0  0  0  0  0  0  0
   22.2799   17.2771    3.3569 H   0  0  0  0  0  0  0  0  0  0  0  0
   21.6324   18.9526    3.3569 H   0  0  0  0  0  0  0  0  0  0  0  0
   16.1623   15.2595    2.4149 H   0  0  0  0  0  0  0  0  0  0  0  0
   15.2448   13.8453    3.1246 H   0  0  0  0  0  0  0  0  0  0  0  0
   15.6524   15.2096    5.3739 H   0  0  0  0  0  0  0  0  0  0  0  0
   15.6936   16.5921    4.1923 H   0  0  0  0  0  0  0  0  0  0  0  0
   13.4399   16.3396    5.0264 H   0  0  0  0  0  0  0  0  0  0  0  0
   13.5312   15.8047    3.2792 H   0  0  0  0  0  0  0  0  0  0  0  0
   13.9262   13.4509    4.5768 H   0  0  0  0  0  0  0  0  0  0  0  0
   12.7718   14.3413    5.6986 H   0  0  0  0  0  0  0  0  0  0  0  0
   11.1410   13.5359    4.4667 H   0  0  0  0  0  0  0  0  0  0  0  0
   11.7082   14.7157    3.1937 H   0  0  0  0  0  0  0  0  0  0  0  0
   10.4239   11.6207    3.0242 H   0  0  0  0  0  0  0  0  0  0  0  0
   10.5256   12.7201    1.6073 H   0  0  0  0  0  0  0  0  0  0  0  0
   11.4314   11.1690    1.6073 H   0  0  0  0  0  0  0  0  0  0  0  0
  2  1  1  0
  3  2  1  0
  4  3  2  0
  5  3  1  0
  6  5  1  0
  7  6  1  0
  8  6  1  0
  9  6  1  0
 10  1  1  0
 11 10  2  0
 12 10  1  0
 13  1  1  0
 14 13  1  0
 15 14  1  0
 16 15  1  0
 17 16  1  0
 19 18  1  0
 19 17  1  0
 20 19  2  0
  1 21  1  1
  2 22  1  0
  7 23  1  0
  7 24  1  0
  7 25  1  0
  8 26  1  0
  8 27  1  0
  8 28  1  0
  9 29  1  0
  9 30  1  0
  9 31  1  0
 13 32  1  0
 13 33  1  0
 14 34  1  0
 14 35  1  0
 15 36  1  0
 15 37  1  0
 16 38  1  0
 16 39  1  0
 17 40  1  0
 17 41  1  0
 18 42  1  0
 18 43  1  0
 18 44  1  0
M  CHG  1  12  -1
M  END
$$$$
=
     RDKit          3D

 23 23  0  0  0  0  0  0  0  0999 V2000
   27.8220   26.4460   14.2030 N   0  0  0  0  0  0  0  0  0  0  0  0
   26.4330   26.9700   14.3290 C   0  0  0  0  0  0  0  0  0  0  0  0
   26.4620   27.9310   15.5300 C   0  0  1  0  0  0  0  0  0  0  0  0
   27.8820   27.8410   16.0880 C   0  0  0  0  0  0  0  0  0  0  0  0
   28.4040   26.4940   15.5890 C   0  0  1  0  0  0  0  0  0  0  0  0
   28.0470   24.9980   13.3390 S   0  0  0  0  0  6  0  0  0  0  0  0
   26.9310   24.1120   13.6030 O   0  0  0  0  0  0  0  0  0  0  0  0
   29.4130   24.5640   13.5680 O   0  0  0  0  0  0  0  0  0  0  0  0
   28.1390   24.5570   10.7040 F   0  0  0  0  0  0  0  0  0  0  0  0
   27.9040   25.5550   11.6090 C   0  0  0  0  0  0  0  0  0  0  0  0
   28.7640   26.5680   11.2860 F   0  0  0  0  0  0  0  0  0  0  0  0
   27.9570   25.4010   16.6020 C   0  0  0  0  0  0  0  0  0  0  0  0
   28.8210   24.5110   16.8630 O   0  0  0  0  0  0  0  0  0  0  0  0
   26.7590   25.4900   16.9940 O   0  0  0  0  0  1  0  0  0  0  0  0
   26.1840   29.2770   15.1280 O   0  0  0  0  0  0  0  0  0  0  0  0
   26.1404   27.5067   13.4145 H   0  0  0  0  0  0  0  0  0  0  0  0
   25.7033   26.1596   14.4731 H   0  0  0  0  0  0  0  0  0  0  0  0
   25.6981   27.6575   16.2727 H   0  0  0  0  0  0  0  0  0  0  0  0
   28.5030   28.6645   15.7057 H   0  0  0  0  0  0  0  0  0  0  0  0
   27.9063   27.9189   17.1850 H   0  0  0  0  0  0  0  0  0  0  0  0
   29.4911   26.3368   15.5290 H   0  0  0  0  0  0  0  0  0  0  0  0
   26.8625   25.9039   11.5486 H   0  0  0  0  0  0  0  0  0  0  0  0
   26.0669   29.8438   15.9312 H   0  0  0  0  0  0  0  0  0  0  0  0
  2  1  1  0
  3  2  1  0
  4  3  1  0
  5  1  1  0
  5  4  1  0
  6  1  1  0
  7  6  2  0
  8  6  2  0
 10  9  1  0
 10  6  1  0
 11 10  1  0
 12  5  1  0
 13 12  2  0
 14 12  1  0
 15  3  1  0
  2 16  1  0
  2 17  1  0
  3 18  1  1
  4 19  1  0
  4 20  1  0
  5 21  1  6
 10 22  1  0
 15 23  1  0
M  CHG  1  14  -1
M  END
$$$$
=
     RDKit          3D

 27 27  0  0  0  0  0  0  0  0999 V2000
   15.7490   13.2350    2.5730 C   0  0  0  0  0  0  0  0  0  0  0  0
   16.1620   14.2970    3.5450 C   0  0  0  0  0  0  0  0  0  0  0  0
   15.2100   15.1480    4.1160 C   0  0  0  0  0  0  0  0  0  0  0  0
   15.5920   16.0970    5.0640 C   0  0  0  0  0  0  0  0  0  0  0  0
   16.9300   16.2010    5.4510 C   0  0  0  0  0  0  0  0  0  0  0  0
   17.8970   15.3520    4.9030 C   0  0  0  0  0  0  0  0  0  0  0  0
   17.5010   14.3990    3.9530 C   0  0  0  0  0  0  0  0  0  0  0  0
   19.3240   15.4770    5.2830 C   0  0  0  0  0  0  0  0  0  0  0  0
   20.1840   16.2830    4.6210 C   0  0  0  0  0  0  0  0  0  0  0  0
   21.6310   16.4950    4.9590 C   0  0  0  0  0  0  0  0  0  0  0  0
   19.7140   14.6240    6.4620 C   0  0  0  0  0  0  0  0  0  0  0  0
   19.7430   17.1490    3.4160 C   0  0  0  0  0  0  0  0  0  0  0  0
   19.8080   16.5620    2.2970 O   0  0  0  0  0  0  0  0  0  0  0  0
   19.4520   18.3450    3.6980 O   0  0  0  0  0  1  0  0  0  0  0  0
   15.4039   12.3477    3.1241 H   0  0  0  0  0  0  0  0  0  0  0  0
   14.9328   13.6142    1.9405 H   0  0  0  0  0  0  0  0  0  0  0  0
   16.6069   12.9631    1.9405 H   0  0  0  0  0  0  0  0  0  0  0  0
   14.1547   15.0684    3.8158 H   0  0  0  0  0  0  0  0  0  0  0  0
   14.8385   16.7645    5.5075 H   0  0  0  0  0  0  0  0  0  0  0  0
   17.2258   16.9571    6.1932 H   0  0  0  0  0  0  0  0  0  0  0  0
   18.2517   13.7209    3.5210 H   0  0  0  0  0  0  0  0  0  0  0  0
   21.7534   16.5129    6.0520 H   0  0  0  0  0  0  0  0  0  0  0  0
   22.2302   15.6751    4.5363 H   0  0  0  0  0  0  0  0  0  0  0  0
   21.9698   17.4524    4.5363 H   0  0  0  0  0  0  0  0  0  0  0  0
   19.4714   15.1545    7.3946 H   0  0  0  0  0  0  0  0  0  0  0  0
   19.1608   13.6739    6.4261 H   0  0  0  0  0  0  0  0  0  0  0  0
   20.7945   14.4208    6.4261 H   0  0  0  0  0  0  0  0  0  0  0  0
  2  1  1  0
  3  2  2  0
  4  3  1  0
  5  4  2  0
  6  5  1  0
  7  2  1  0
  7  6  2  0
  8  6  1  0
  9  8  2  0
 10  9  1  0
 11  8  1  0
 12  9  1  0
 13 12  2  0
 14 12  1  0
  1 15  1  0
  1 16  1  0
  1 17  1  0
  3 18  1  0
  4 19  1  0
  5 20  1  0
  7 21  1  0
 10 22  1  0
 10 23  1  0
 10 24  1  0
 11 25  1  0
 11 26  1  0
 11 27  1  0
M  CHG  1  14  -1
M  END
$$$$
=
     RDKit          3D

 27 27  0  0  0  0  0  0  0  0999 V2000
   20.3680   17.7930    4.0360 C   0  0  0  0  0  0  0  0  0  0  0  0
   21.5860   18.4680    3.8410 C   0  0  0  0  0  0  0  0  0  0  0  0
   22.6260   18.3330    4.7540 C   0  0  0  0  0  0  0  0  0  0  0  0
   22.4520   17.5220    5.8660 C   0  0  0  0  0  0  0  0  0  0  0  0
   21.2520   16.8280    6.0410 C   0  0  0  0  0  0  0  0  0  0  0  0
   20.1830   16.9160    5.1170 C   0  0  0  0  0  0  0  0  0  0  0  0
   18.9300   16.0540    5.3840 C   0  0  0  0  0  0  0  0  0  0  0  0
   19.0010   15.0250    6.5280 C   0  0  0  0  0  0  0  0  0  0  0  0
   17.7400   16.9800    5.7320 C   0  0  0  0  0  0  0  0  0  0  0  0
   18.6440   15.2150    4.0880 C   0  0  0  0  0  0  0  0  0  0  0  0
   17.4790   15.3290    3.6010 O   0  0  0  0  0  0  0  0  0  0  0  0
   19.6030   14.5090    3.6540 O   0  0  0  0  0  1  0  0  0  0  0  0
   19.8520   17.5570    1.8240 C   0  0  0  0  0  0  0  0  0  0  0  0
   19.3930   18.0220    3.0990 O   0  0  0  0  0  0  0  0  0  0  0  0
   21.7174   19.1094    2.9571 H   0  0  0  0  0  0  0  0  0  0  0  0
   23.5766   18.8636    4.5962 H   0  0  0  0  0  0  0  0  0  0  0  0
   23.2575   17.4255    6.6088 H   0  0  0  0  0  0  0  0  0  0  0  0
   21.1335   16.1899    6.9292 H   0  0  0  0  0  0  0  0  0  0  0  0
   18.9649   15.5485    7.4948 H   0  0  0  0  0  0  0  0  0  0  0  0
   18.1484   14.3340    6.4531 H   0  0  0  0  0  0  0  0  0  0  0  0
   19.9404   14.4577    6.4531 H   0  0  0  0  0  0  0  0  0  0  0  0
   17.6421   17.0562    6.8250 H   0  0  0  0  0  0  0  0  0  0  0  0
   17.9176   17.9799    5.3092 H   0  0  0  0  0  0  0  0  0  0  0  0
   16.8144   16.5622    5.3092 H   0  0  0  0  0  0  0  0  0  0  0  0
   20.6179   16.7811    1.9707 H   0  0  0  0  0  0  0  0  0  0  0  0
   19.0061   17.1355    1.2612 H   0  0  0  0  0  0  0  0  0  0  0  0
   20.2845   18.3974    1.2612 H   0  0  0  0  0  0  0  0  0  0  0  0
  2  1  2  0
  3  2  1  0
  4  3  2  0
  5  4  1  0
  6  1  1  0
  6  5  2  0
  7  6  1  0
  8  7  1  0
  9  7  1  0
 10  7  1  0
 11 10  2  0
 12 10  1  0
 14 13  1  0
 14  1  1  0
  2 15  1  0
  3 16  1  0
  4 17  1  0
  5 18  1  0
  8 19  1  0
  8 20  1  0
  8 21  1  0
  9 22  1  0
  9 23  1  0
  9 24  1  0
 13 25  1  0
 13 26  1  0
 13 27  1  0
M  CHG  1  12  -1
M  END
$$$$
=
     RDKit          3D

 29 31  0  0  0  0  0  0  0  0999 V2000
   14.2160   14.1840    3.8790 C   0  0  0  0  0  0  0  0  0  0  0  0
   13.9110   13.0350    3.1400 C   0  0  0  0  0  0  0  0  0  0  0  0
   14.9280   12.2770    2.5550 C   0  0  0  0  0  0  0  0  0  0  0  0
   16.2580   12.6620    2.7040 C   0  0  0  0  0  0  0  0  0  0  0  0
   16.5680   13.8090    3.4420 C   0  0  0  0  0  0  0  0  0  0  0  0
   15.5600   14.5700    4.0300 C   0  0  0  0  0  0  0  0  0  0  0  0
   15.8110   15.7070    4.7650 O   0  0  0  0  0  0  0  0  0  0  0  0
   17.1130   16.1100    4.9300 C   0  0  0  0  0  0  0  0  0  0  0  0
   17.3070   17.2660    5.6830 C   0  0  0  0  0  0  0  0  0  0  0  0
   18.5990   17.7480    5.9010 C   0  0  0  0  0  0  0  0  0  0  0  0
   19.7200   17.0850    5.3700 C   0  0  0  0  0  0  0  0  0  0  0  0
   19.5100   15.9190    4.6120 C   0  0  0  0  0  0  0  0  0  0  0  0
   18.2130   15.4400    4.3970 C   0  0  0  0  0  0  0  0  0  0  0  0
   17.9700   14.2240    3.6070 C   0  0  0  0  0  0  0  0  0  0  0  0
   18.8740   13.5710    3.1000 O   0  0  0  0  0  0  0  0  0  0  0  0
   21.1190   17.6190    5.6130 C   0  0  0  0  0  0  0  0  0  0  0  0
   21.8500   16.9670    6.4220 O   0  0  0  0  0  0  0  0  0  0  0  0
   21.4520   18.6750    4.9920 O   0  0  0  0  0  1  0  0  0  0  0  0
   11.9380   14.5480    4.4950 C   0  0  0  0  0  0  0  0  0  0  0  0
   13.2870   14.9900    4.4890 O   0  0  0  0  0  0  0  0  0  0  0  0
   12.8621   12.7265    3.0190 H   0  0  0  0  0  0  0  0  0  0  0  0
   14.6782   11.3755    1.9763 H   0  0  0  0  0  0  0  0  0  0  0  0
   17.0606   12.0671    2.2437 H   0  0  0  0  0  0  0  0  0  0  0  0
   16.4424   17.7988    6.1057 H   0  0  0  0  0  0  0  0  0  0  0  0
   18.7425   18.6609    6.4976 H   0  0  0  0  0  0  0  0  0  0  0  0
   20.3697   15.3809    4.1861 H   0  0  0  0  0  0  0  0  0  0  0  0
   11.5937   14.4352    5.5336 H   0  0  0  0  0  0  0  0  0  0  0  0
   11.3078   15.2867    3.9780 H   0  0  0  0  0  0  0  0  0  0  0  0
   11.8671   13.5797    3.9780 H   0  0  0  0  0  0  0  0  0  0  0  0
  2  1  2  0
  3  2  1  0
  4  3  2  0
  5  4  1  0
  6  1  1  0
  6  5  2  0
  7  6  1  0
  8  7  1  0
  9  8  2  0
 10  9  1  0
 11 10  2  0
 12 11  1  0
 13 12  2  0
 13  8  1  0
 14 13  1  0
 14  5  1  0
 15 14  2  0
 16 11  1  0
 17 16  2  0
 18 16  1  0
 20 19  1  0
 20  1  1  0
  2 21  1  0
  3 22  1  0
  4 23  1  0
  9 24  1  0
 10 25  1  0
 12 26  1  0
 19 27  1  0
 19 28  1  0
 19 29  1  0
M  CHG  1  18  -1
M  END
$$$$
=
     RDKit          3D

 33 34  0  0  0  0  0  0  0  0999 V2000
   17.3070   16.8360    5.5900 C   0  0  0  0  0  0  0  0  0  0  0  0
   18.7010   16.4600    5.8050 N   0  0  0  0  0  0  0  0  0  0  0  0
   19.0000   15.2100    6.3180 C   0  0  0  0  0  0  0  0  0  0  0  0
   20.2660   14.8240    6.5060 C   0  0  0  0  0  0  0  0  0  0  0  0
   21.3430   15.7100    6.1550 C   0  0  0  0  0  0  0  0  0  0  0  0
   21.0910   16.9230    5.6380 C   0  0  0  0  0  0  0  0  0  0  0  0
   19.6990   17.3850    5.4330 C   0  0  0  0  0  0  0  0  0  0  0  0
   19.4250   18.4960    4.9800 O   0  0  0  0  0  0  0  0  0  0  0  0
   22.2670   17.7920    5.2500 C   0  0  0  0  0  0  0  0  0  0  0  0
   22.3770   18.0440    4.0160 O   0  0  0  0  0  0  0  0  0  0  0  0
   23.0660   18.0670    6.1950 O   0  0  0  0  0  1  0  0  0  0  0  0
   16.5870   15.8200    4.7000 C   0  0  0  0  0  0  0  0  0  0  0  0
   15.2350   15.3770    5.2670 C   0  0  0  0  0  0  0  0  0  0  0  0
   11.9360   11.9390    2.2260 F   0  0  0  0  0  0  0  0  0  0  0  0
   12.7300   12.7520    2.9360 C   0  0  0  0  0  0  0  0  0  0  0  0
   12.1610   13.7420    3.7260 C   0  0  0  0  0  0  0  0  0  0  0  0
   12.9860   14.5890    4.4670 C   0  0  0  0  0  0  0  0  0  0  0  0
   14.3850   14.4560    4.4170 C   0  0  0  0  0  0  0  0  0  0  0  0
   14.9330   13.4350    3.6240 C   0  0  0  0  0  0  0  0  0  0  0  0
   14.1070   12.5910    2.8790 C   0  0  0  0  0  0  0  0  0  0  0  0
   16.7955   16.8862    6.5625 H   0  0  0  0  0  0  0  0  0  0  0  0
   17.2852   17.8142    5.0874 H   0  0  0  0  0  0  0  0  0  0  0  0
   18.1814   14.5218    6.5756 H   0  0  0  0  0  0  0  0  0  0  0  0
   20.4833   13.8316    6.9279 H   0  0  0  0  0  0  0  0  0  0  0  0
   22.3839   15.3905    6.3117 H   0  0  0  0  0  0  0  0  0  0  0  0
   16.4204   16.2754    3.7127 H   0  0  0  0  0  0  0  0  0  0  0  0
   17.2258   14.9266    4.6387 H   0  0  0  0  0  0  0  0  0  0  0  0
   15.4307   14.8597    6.2178 H   0  0  0  0  0  0  0  0  0  0  0  0
   14.6484   16.3042    5.3459 H   0  0  0  0  0  0  0  0  0  0  0  0
   11.0679   13.8577    3.7674 H   0  0  0  0  0  0  0  0  0  0  0  0
   12.5366   15.3701    5.0978 H   0  0  0  0  0  0  0  0  0  0  0  0
   16.0240   13.2987    3.5893 H   0  0  0  0  0  0  0  0  0  0  0  0
   14.5457   11.8024    2.2500 H   0  0  0  0  0  0  0  0  0  0  0  0
  2  1  1  0
  3  2  1  0
  4  3  2  0
  5  4  1  0
  6  5  2  0
  7  6  1  0
  7  2  1  0
  8  7  2  0
  9  6  1  0
 10  9  2  0
 11  9  1  0
 12  1  1  0
 13 12  1  0
 15 14  1  0
 16 15  2  0
 17 16  1  0
 18 17  2  0
 18 13  1  0
 19 18  1  0
 20 19  2  0
 20 15  1  0
  1 21  1  0
  1 22  1  0
  3 23  1  0
  4 24  1  0
  5 25  1  0
 12 26  1  0
 12 27  1  0
 13 28  1  0
 13 29  1  0
 16 30  1  0
 17 31  1  0
 19 32  1  0
 20 33  1  0
M  CHG  1  11  -1
M  END
$$$$
=
     RDKit          3D

 25 25  0  0  0  0  0  0  0  0999 V2000
   18.0580   16.5420    4.5980 C   0  0  0  0  0  0  0  0  0  0  0  0
   17.1650   16.7880    5.6320 C   0  0  0  0  0  0  0  0  0  0  0  0
   15.9630   16.0870    5.6250 C   0  0  0  0  0  0  0  0  0  0  0  0
   15.7020   15.1670    4.6010 C   0  0  0  0  0  0  0  0  0  0  0  0
   16.6850   14.9730    3.6350 C   0  0  0  0  0  0  0  0  0  0  0  0
   17.8670   15.6220    3.6130 N   0  0  0  0  0  0  0  0  0  0  0  0
   14.4350   14.3780    4.5400 C   0  0  0  0  0  0  0  0  0  0  0  0
   14.6500   13.0820    4.1730 F   0  0  0  0  0  0  0  0  0  0  0  0
   13.7670   14.3140    5.7270 F   0  0  0  0  0  0  0  0  0  0  0  0
   13.5360   14.8660    3.6370 F   0  0  0  0  0  0  0  0  0  0  0  0
   19.6320   17.3910    4.5480 S   0  0  0  0  0  6  0  0  0  0  0  0
   19.8070   17.8820    3.1860 O   0  0  0  0  0  0  0  0  0  0  0  0
   19.6330   18.3850    5.6180 O   0  0  0  0  0  0  0  0  0  0  0  0
   20.8700   16.1940    4.9450 C   0  0  2  0  0  0  0  0  0  0  0  0
   20.3940   15.2240    6.0120 C   0  0  0  0  0  0  0  0  0  0  0  0
   22.4450   16.8070    6.5590 O   0  0  0  0  0  1  0  0  0  0  0  0
   22.1130   16.9420    5.3470 C   0  0  0  0  0  0  0  0  0  0  0  0
   22.6940   17.6130    4.4530 O   0  0  0  0  0  0  0  0  0  0  0  0
   17.3990   17.5106    6.4277 H   0  0  0  0  0  0  0  0  0  0  0  0
   15.2211   16.2544    6.4197 H   0  0  0  0  0  0  0  0  0  0  0  0
   16.4847   14.2425    2.8373 H   0  0  0  0  0  0  0  0  0  0  0  0
   21.0911   15.5651    4.0700 H   0  0  0  0  0  0  0  0  0  0  0  0
   20.6001   15.6440    7.0076 H   0  0  0  0  0  0  0  0  0  0  0  0
   19.3123   15.0584    5.9007 H   0  0  0  0  0  0  0  0  0  0  0  0
   20.9248   14.2670    5.9007 H   0  0  0  0  0  0  0  0  0  0  0  0
  2  1  2  0
  3  2  1  0
  4  3  2  0
  5  4  1  0
  6  5  2  0
  6  1  1  0
  7  4  1  0
  8  7  1  0
  9  7  1  0
 10  7  1  0
 11  1  1  0
 12 11  2  0
 13 11  2  0
 14 11  1  0
 15 14  1  0
 17 14  1  0
 17 16  1  0
 18 17  2  0
  2 19  1  0
  3 20  1  0
  5 21  1  0
 14 22  1  6
 15 23  1  0
 15 24  1  0
 15 25  1  0
M  CHG  1  16  -1
M  END
$$$$
=
     RDKit          3D

 39 39  0  0  0  0  0  0  0  0999 V2000
   13.6160   13.8220    3.9240 C   0  0  0  0  0  0  0  0  0  0  0  0
   13.6870   12.6330    3.1750 C   0  0  0  0  0  0  0  0  0  0  0  0
   14.8640   12.2540    2.5440 C   0  0  0  0  0  0  0  0  0  0  0  0
   16.0040   13.0440    2.6660 C   0  0  0  0  0  0  0  0  0  0  0  0
   15.9770   14.2390    3.3960 C   0  0  0  0  0  0  0  0  0  0  0  0
   14.7590   14.6640    3.9910 C   0  0  0  0  0  0  0  0  0  0  0  0
   14.6510   15.9930    4.7040 C   0  0  0  0  0  0  0  0  0  0  0  0
   17.1420   15.0230    3.5850 N   0  0  0  0  0  0  0  0  0  0  0  0
   18.4680   14.6220    3.5690 C   0  0  0  0  0  0  0  0  0  0  0  0
   18.9030   13.5030    3.3230 O   0  0  0  0  0  0  0  0  0  0  0  0
   19.3920   15.7960    3.8730 C   0  0  0  0  0  0  0  0  0  0  0  0
   18.7150   16.9430    4.6260 C   0  0  0  0  0  0  0  0  0  0  0  0
   19.6110   18.1840    4.7240 C   0  0  0  0  0  0  0  0  0  0  0  0
   20.8760   18.0770    3.8650 C   0  0  0  0  0  0  0  0  0  0  0  0
   22.1340   18.6730    4.5030 C   0  0  0  0  0  0  0  0  0  0  0  0
   22.5980   17.9610    5.7620 C   0  0  0  0  0  0  0  0  0  0  0  0
   11.5500   14.9990    4.1190 O   0  0  0  0  0  1  0  0  0  0  0  0
   12.3130   14.1270    4.6400 C   0  0  0  0  0  0  0  0  0  0  0  0
   12.0970   13.5000    5.7240 O   0  0  0  0  0  0  0  0  0  0  0  0
   12.7960   11.9938    3.0881 H   0  0  0  0  0  0  0  0  0  0  0  0
   14.8960   11.3300    1.9479 H   0  0  0  0  0  0  0  0  0  0  0  0
   16.9390   12.7251    2.1822 H   0  0  0  0  0  0  0  0  0  0  0  0
   14.6644   15.8278    5.7914 H   0  0  0  0  0  0  0  0  0  0  0  0
   15.5002   16.6317    4.4196 H   0  0  0  0  0  0  0  0  0  0  0  0
   13.7098   16.4862    4.4196 H   0  0  0  0  0  0  0  0  0  0  0  0
   16.9815   16.0257    3.7574 H   0  0  0  0  0  0  0  0  0  0  0  0
   20.2293   15.4278    4.4841 H   0  0  0  0  0  0  0  0  0  0  0  0
   19.7201   16.2014    2.9045 H   0  0  0  0  0  0  0  0  0  0  0  0
   17.7896   17.2157    4.0975 H   0  0  0  0  0  0  0  0  0  0  0  0
   18.5063   16.5970    5.6491 H   0  0  0  0  0  0  0  0  0  0  0  0
   19.0345   19.0600    4.3919 H   0  0  0  0  0  0  0  0  0  0  0  0
   19.9312   18.2774    5.7722 H   0  0  0  0  0  0  0  0  0  0  0  0
   21.0650   17.0121    3.6643 H   0  0  0  0  0  0  0  0  0  0  0  0
   20.6831   18.6612    2.9531 H   0  0  0  0  0  0  0  0  0  0  0  0
   22.9477   18.6300    3.7640 H   0  0  0  0  0  0  0  0  0  0  0  0
   21.8778   19.7006    4.8004 H   0  0  0  0  0  0  0  0  0  0  0  0
   22.2407   18.5093    6.6461 H   0  0  0  0  0  0  0  0  0  0  0  0
   22.1922   16.9387    5.7758 H   0  0  0  0  0  0  0  0  0  0  0  0
   23.6971   17.9194    5.7758 H   0  0  0  0  0  0  0  0  0  0  0  0
  2  1  2  0
  3  2  1  0
  4  3  2  0
  5  4  1  0
  6  5  2  0
  6  1  1  0
  7  6  1  0
  8  5  1  0
  9  8  1  0
 10  9  2  0
 11  9  1  0
 12 11  1  0
 13 12  1  0
 14 13  1  0
 15 14  1  0
 16 15  1  0
 18 17  1  0
 18  1  1  0
 19 18  2  0
  2 20  1  0
  3 21  1  0
  4 22  1  0
  7 23  1  0
  7 24  1  0
  7 25  1  0
  8 26  1  0
 11 27  1  0
 11 28  1  0
 12 29  1  0
 12 30  1  0
 13 31  1  0
 13 32  1  0
 14 33  1  0
 14 34  1  0
 15 35  1  0
 15 36  1  0
 16 37  1  0
 16 38  1  0
 16 39  1  0
M  CHG  1  17  -1
M  END
$$$$
=
     RDKit          3D

 45 48  0  0  0  0  0  0  0  0999 V2000
   26.3810   23.4470   11.7490 C   0  0  0  0  0  0  0  0  0  0  0  0
   25.3560   24.1950   11.2040 C   0  0  0  0  0  0  0  0  0  0  0  0
   24.9260   25.1300   12.1760 C   0  0  0  0  0  0  0  0  0  0  0  0
   25.7080   24.9310   13.3160 C   0  0  0  0  0  0  0  0  0  0  0  0
   26.5830   23.8830   13.0400 N   0  0  0  0  0  0  0  0  0  0  0  0
   25.5320   25.7220   14.4660 C   0  0  0  0  0  0  0  0  0  0  0  0
   24.5450   26.7170   14.4650 C   0  0  0  0  0  0  0  0  0  0  0  0
   23.7610   26.9230   13.3320 C   0  0  0  0  0  0  0  0  0  0  0  0
   23.9430   26.1370   12.1870 C   0  0  0  0  0  0  0  0  0  0  0  0
   28.3390   22.5270   10.6510 O   0  0  0  0  0  1  0  0  0  0  0  0
   27.1330   22.3100   10.9660 C   0  0  0  0  0  0  0  0  0  0  0  0
   26.4600   21.2630   10.7210 O   0  0  0  0  0  0  0  0  0  0  0  0
   27.6000   23.4010   13.9730 C   0  0  0  0  0  0  0  0  0  0  0  0
   28.5660   24.4860   14.3980 C   0  0  0  0  0  0  0  0  0  0  0  0
   28.9910   25.4610   13.4840 C   0  0  0  0  0  0  0  0  0  0  0  0
   29.8780   26.4670   13.8740 C   0  0  0  0  0  0  0  0  0  0  0  0
   30.3480   26.5140   15.1840 C   0  0  0  0  0  0  0  0  0  0  0  0
   29.9270   25.5580   16.1070 C   0  0  0  0  0  0  0  0  0  0  0  0
   29.0390   24.5530   15.7170 C   0  0  0  0  0  0  0  0  0  0  0  0
   24.4580   27.4210   15.6390 O   0  0  0  0  0  0  0  0  0  0  0  0
   25.4070   27.1000   16.6540 C   0  0  0  0  0  0  0  0  0  0  0  0
   26.6100   28.0050   16.5090 C   0  0  0  0  0  0  0  0  0  0  0  0
   26.7450   28.8290   15.3820 C   0  0  0  0  0  0  0  0  0  0  0  0
   27.8650   29.6470   15.2310 C   0  0  0  0  0  0  0  0  0  0  0  0
   28.8660   29.6470   16.2010 C   0  0  0  0  0  0  0  0  0  0  0  0
   28.7450   28.8290   17.3240 C   0  0  0  0  0  0  0  0  0  0  0  0
   27.6240   28.0100   17.4770 C   0  0  0  0  0  0  0  0  0  0  0  0
   24.9448   24.0835   10.1899 H   0  0  0  0  0  0  0  0  0  0  0  0
   26.1607   25.5617   15.3542 H   0  0  0  0  0  0  0  0  0  0  0  0
   22.9923   27.7098   13.3366 H   0  0  0  0  0  0  0  0  0  0  0  0
   23.3184   26.3066   11.2976 H   0  0  0  0  0  0  0  0  0  0  0  0
   27.0972   23.0073   14.8686 H   0  0  0  0  0  0  0  0  0  0  0  0
   28.1815   22.6229   13.4568 H   0  0  0  0  0  0  0  0  0  0  0  0
   28.6216   25.4332   12.4482 H   0  0  0  0  0  0  0  0  0  0  0  0
   30.2057   27.2231   13.1454 H   0  0  0  0  0  0  0  0  0  0  0  0
   31.0499   27.3038   15.4898 H   0  0  0  0  0  0  0  0  0  0  0  0
   30.2944   25.5952   17.1432 H   0  0  0  0  0  0  0  0  0  0  0  0
   28.7067   23.8055   16.4524 H   0  0  0  0  0  0  0  0  0  0  0  0
   24.9517   27.2480   17.6444 H   0  0  0  0  0  0  0  0  0  0  0  0
   25.7182   26.0499   16.5523 H   0  0  0  0  0  0  0  0  0  0  0  0
   25.9609   28.8303   14.6105 H   0  0  0  0  0  0  0  0  0  0  0  0
   27.9582   30.2927   14.3454 H   0  0  0  0  0  0  0  0  0  0  0  0
   29.7497   30.2910   16.0809 H   0  0  0  0  0  0  0  0  0  0  0  0
   29.5338   28.8288   18.0906 H   0  0  0  0  0  0  0  0  0  0  0  0
   27.5362   27.3644   18.3633 H   0  0  0  0  0  0  0  0  0  0  0  0
  2  1  2  0
  3  2  1  0
  4  3  2  0
  5  4  1  0
  5  1  1  0
  6  4  1  0
  7  6  2  0
  8  7  1  0
  9  8  2  0
  9  3  1  0
 11  1  1  0
 11 10  1  0
 12 11  2  0
 13  5  1  0
 14 13  1  0
 15 14  2  0
 16 15  1  0
 17 16  2  0
 18 17  1  0
 19 18  2  0
 19 14  1  0
 20  7  1  0
 21 20  1  0
 22 21  1  0
 23 22  2  0
 24 23  1  0
 25 24  2  0
 26 25  1  0
 27 22  1  0
 27 26  2  0
  2 28  1  0
  6 29  1  0
  8 30  1  0
  9 31  1  0
 13 32  1  0
 13 33  1  0
 15 34  1  0
 16 35  1  0
 17 36  1  0
 18 37  1  0
 19 38  1  0
 21 39  1  0
 21 40  1  0
 23 41  1  0
 24 42  1  0
 25 43  1  0
 26 44  1  0
 27 45  1  0
M  CHG  1  10  -1
M  END
$$$$
=
     RDKit          3D

 25 25  0  0  0  0  0  0  0  0999 V2000
   17.5690   16.5780    5.8270 C   0  0  0  0  0  0  0  0  0  0  0  0
   17.1760   17.6880    5.4590 O   0  0  0  0  0  0  0  0  0  0  0  0
   18.8760   16.1430    5.6460 N   0  0  0  0  0  0  0  0  0  0  0  0
   19.3670   14.7930    5.8970 C   0  0  0  0  0  0  0  0  0  0  0  0
   20.6610   14.8470    6.7110 C   0  0  0  0  0  0  0  0  0  0  0  0
   21.5200   16.0760    6.3920 C   0  0  0  0  0  0  0  0  0  0  0  0
   21.2530   16.6000    4.9850 C   0  0  0  0  0  0  0  0  0  0  0  0
   19.7690   16.9770    4.7930 C   0  0  1  0  0  0  0  0  0  0  0  0
   19.5260   16.8770    3.2480 C   0  0  0  0  0  0  0  0  0  0  0  0
   19.3230   17.9750    2.6490 O   0  0  0  0  0  0  0  0  0  0  0  0
   19.5030   15.6960    2.7870 O   0  0  0  0  0  1  0  0  0  0  0  0
   16.6290   15.7080    6.6230 C   0  0  0  0  0  0  0  0  0  0  0  0
   14.6430   14.8700    5.1360 N   0  0  0  0  0  0  0  0  0  0  0  0
   15.4760   15.2590    5.8460 C   0  0  0  0  0  0  0  0  0  0  0  0
   18.6077   14.2281    6.4578 H   0  0  0  0  0  0  0  0  0  0  0  0
   19.5671   14.2981    4.9352 H   0  0  0  0  0  0  0  0  0  0  0  0
   20.4018   14.8686    7.7798 H   0  0  0  0  0  0  0  0  0  0  0  0
   21.2514   13.9566    6.4489 H   0  0  0  0  0  0  0  0  0  0  0  0
   21.2901   16.8699    7.1178 H   0  0  0  0  0  0  0  0  0  0  0  0
   22.5778   15.7807    6.4533 H   0  0  0  0  0  0  0  0  0  0  0  0
   21.8734   17.4918    4.8122 H   0  0  0  0  0  0  0  0  0  0  0  0
   21.5020   15.8041    4.2677 H   0  0  0  0  0  0  0  0  0  0  0  0
   19.5258   17.9948    5.1320 H   0  0  0  0  0  0  0  0  0  0  0  0
   17.1814   14.8241    6.9745 H   0  0  0  0  0  0  0  0  0  0  0  0
   16.2486   16.3119    7.4600 H   0  0  0  0  0  0  0  0  0  0  0  0
  2  1  2  0
  3  1  1  0
  4  3  1  0
  5  4  1  0
  6  5  1  0
  7  6  1  0
  8  3  1  0
  8  7  1  0
  9  8  1  0
 10  9  2  0
 11  9  1  0
 12  1  1  0
 14 13  3  0
 14 12  1  0
  4 15  1  0
  4 16  1  0
  5 17  1  0
  5 18  1  0
  6 19  1  0
  6 20  1  0
  7 21  1  0
  7 22  1  0
  8 23  1  1
 12 24  1  0
 12 25  1  0
M  CHG  1  11  -1
M  END
$$$$
=
     RDKit          3D

 42 43  0  0  0  0  0  0  0  0999 V2000
   18.7430   16.2420    4.9310 C   0  0  0  0  0  0  0  0  0  0  0  0
   17.2810   15.8570    5.2440 C   0  0  0  0  0  0  0  0  0  0  0  0
   16.5790   15.2200    4.0490 C   0  0  0  0  0  0  0  0  0  0  0  0
   17.2790   14.0190    3.5960 N   0  0  0  0  0  0  0  0  0  0  0  0
   18.7150   13.9470    3.8300 C   0  0  0  0  0  0  0  0  0  0  0  0
   19.3510   15.3330    3.8420 C   0  0  0  0  0  0  0  0  0  0  0  0
   16.6490   12.9950    2.9120 C   0  0  0  0  0  0  0  0  0  0  0  0
   17.2120   11.9680    2.5470 O   0  0  0  0  0  0  0  0  0  0  0  0
   18.8300   17.7350    4.5580 C   0  0  0  0  0  0  0  0  0  0  0  0
   20.0500   18.6310    5.5810 S   0  0  0  0  0  0  0  0  0  0  0  0
   21.5560   18.3410    4.5790 C   0  0  0  0  0  0  0  0  0  0  0  0
   22.4530   17.0400    6.3590 O   0  0  0  0  0  1  0  0  0  0  0  0
   22.7070   17.9500    5.5180 C   0  0  0  0  0  0  0  0  0  0  0  0
   23.7980   18.5620    5.3120 O   0  0  0  0  0  0  0  0  0  0  0  0
   15.3320   13.2550    2.6960 O   0  0  0  0  0  0  0  0  0  0  0  0
   14.4150   12.2450    3.1240 C   0  0  0  0  0  0  0  0  0  0  0  0
   13.0530   12.8510    3.3430 C   0  0  0  0  0  0  0  0  0  0  0  0
   11.9480   12.3970    2.6090 C   0  0  0  0  0  0  0  0  0  0  0  0
   10.6900   12.9730    2.7950 C   0  0  0  0  0  0  0  0  0  0  0  0
   10.5270   14.0110    3.7110 C   0  0  0  0  0  0  0  0  0  0  0  0
   11.6210   14.4790    4.4360 C   0  0  0  0  0  0  0  0  0  0  0  0
   12.8800   13.9050    4.2500 C   0  0  0  0  0  0  0  0  0  0  0  0
   19.3468   16.0836    5.8367 H   0  0  0  0  0  0  0  0  0  0  0  0
   17.2752   15.1417    6.0796 H   0  0  0  0  0  0  0  0  0  0  0  0
   16.7385   16.7793    5.4992 H   0  0  0  0  0  0  0  0  0  0  0  0
   15.5535   14.9481    4.3397 H   0  0  0  0  0  0  0  0  0  0  0  0
   16.5714   15.9477    3.2241 H   0  0  0  0  0  0  0  0  0  0  0  0
   18.8948   13.4631    4.8014 H   0  0  0  0  0  0  0  0  0  0  0  0
   19.1685   13.3669    3.0128 H   0  0  0  0  0  0  0  0  0  0  0  0
   20.4295   15.2266    4.0304 H   0  0  0  0  0  0  0  0  0  0  0  0
   19.1605   15.8013    2.8651 H   0  0  0  0  0  0  0  0  0  0  0  0
   19.1232   17.8198    3.5012 H   0  0  0  0  0  0  0  0  0  0  0  0
   17.8428   18.1861    4.7366 H   0  0  0  0  0  0  0  0  0  0  0  0
   21.3718   17.5280    3.8613 H   0  0  0  0  0  0  0  0  0  0  0  0
   21.8187   19.2547    4.0257 H   0  0  0  0  0  0  0  0  0  0  0  0
   14.3471   11.4632    2.3531 H   0  0  0  0  0  0  0  0  0  0  0  0
   14.7728   11.8060    4.0670 H   0  0  0  0  0  0  0  0  0  0  0  0
   12.0732   11.5814    1.8816 H   0  0  0  0  0  0  0  0  0  0  0  0
    9.8273   12.6077    2.2186 H   0  0  0  0  0  0  0  0  0  0  0  0
    9.5345   14.4608    3.8615 H   0  0  0  0  0  0  0  0  0  0  0  0
   11.4926   15.3012    5.1553 H   0  0  0  0  0  0  0  0  0  0  0  0
   13.7421   14.2827    4.8194 H   0  0  0  0  0  0  0  0  0  0  0  0
  2  1  1  0
  3  2  1  0
  4  3  1  0
  5  4  1  0
  6  5  1  0
  6  1  1  0
  7  4  1  0
  8  7  2  0
  9  1  1  0
 10  9  1  0
 11 10  1  0
 13 11  1  0
 13 12  1  0
 14 13  2  0
 15  7  1  0
 16 15  1  0
 17 16  1  0
 18 17  2  0
 19 18  1  0
 20 19  2  0
 21 20  1  0
 22 21  2  0
 22 17  1  0
  1 23  1  0
  2 24  1  0
  2 25  1  0
  3 26  1  0
  3 27  1  0
  5 28  1  0
  5 29  1  0
  6 30  1  0
  6 31  1  0
  9 32  1  0
  9 33  1  0
 11 34  1  0
 11 35  1  0
 16 36  1  0
 16 37  1  0
 18 38  1  0
 19 39  1  0
 20 40  1  0
 21 41  1  0
 22 42  1  0
M  CHG  1  12  -1
M  END
$$$$
=
     RDKit          3D

 32 34  0  0  0  0  0  0  0  0999 V2000
   25.7060   25.5740   13.3380 N   0  0  0  0  0  0  0  0  0  0  0  0
   26.4260   26.4980   14.0860 C   0  0  0  0  0  0  0  0  0  0  0  0
   25.9320   27.3610   14.8060 O   0  0  0  0  0  0  0  0  0  0  0  0
   27.9540   26.4430   13.9380 C   0  0  0  0  0  0  0  0  0  0  0  0
   28.5570   25.5790   13.1710 N   0  0  0  0  0  0  0  0  0  0  0  0
   27.7800   24.6570   12.4580 C   0  0  0  0  0  0  0  0  0  0  0  0
   26.3770   24.6190   12.5240 C   0  0  0  0  0  0  0  0  0  0  0  0
   25.6910   23.6470   11.7790 C   0  0  0  0  0  0  0  0  0  0  0  0
   26.3840   22.7310   10.9830 C   0  0  0  0  0  0  0  0  0  0  0  0
   27.7720   22.7760   10.9160 C   0  0  0  0  0  0  0  0  0  0  0  0
   28.4630   23.7360   11.6530 C   0  0  0  0  0  0  0  0  0  0  0  0
   28.8070   27.4070   14.6960 C   0  0  0  0  0  0  0  0  0  0  0  0
   28.7490   28.7870   14.4780 C   0  0  0  0  0  0  0  0  0  0  0  0
   29.5870   29.6470   15.1930 C   0  0  0  0  0  0  0  0  0  0  0  0
   30.4950   29.1320   16.1190 C   0  0  0  0  0  0  0  0  0  0  0  0
   30.5700   27.7560   16.3300 C   0  0  0  0  0  0  0  0  0  0  0  0
   29.7320   26.8960   15.6170 C   0  0  0  0  0  0  0  0  0  0  0  0
   24.2410   25.5150   13.5060 C   0  0  0  0  0  0  0  0  0  0  0  0
   23.3810   25.5030   15.7390 O   0  0  0  0  0  1  0  0  0  0  0  0
   23.7340   24.7780   14.7660 C   0  0  0  0  0  0  0  0  0  0  0  0
   23.7400   23.5130   14.6700 O   0  0  0  0  0  0  0  0  0  0  0  0
   24.5926   23.6057   11.8224 H   0  0  0  0  0  0  0  0  0  0  0  0
   25.8306   21.9734   10.4087 H   0  0  0  0  0  0  0  0  0  0  0  0
   28.3203   22.0597   10.2864 H   0  0  0  0  0  0  0  0  0  0  0  0
   29.5613   23.7711   11.6019 H   0  0  0  0  0  0  0  0  0  0  0  0
   28.0419   29.1968   13.7418 H   0  0  0  0  0  0  0  0  0  0  0  0
   29.5307   30.7327   15.0254 H   0  0  0  0  0  0  0  0  0  0  0  0
   31.1514   29.8116   16.6823 H   0  0  0  0  0  0  0  0  0  0  0  0
   31.2880   27.3484   17.0568 H   0  0  0  0  0  0  0  0  0  0  0  0
   29.7982   25.8100   15.7792 H   0  0  0  0  0  0  0  0  0  0  0  0
   23.8647   26.5479   13.5457 H   0  0  0  0  0  0  0  0  0  0  0  0
   23.8671   24.9330   12.6508 H   0  0  0  0  0  0  0  0  0  0  0  0
  2  1  1  0
  3  2  2  0
  4  2  1  0
  5  4  2  0
  6  5  1  0
  7  1  1  0
  7  6  2  0
  8  7  1  0
  9  8  2  0
 10  9  1  0
 11 10  2  0
 11  6  1  0
 12  4  1  0
 13 12  2  0
 14 13  1  0
 15 14  2  0
 16 15  1  0
 17 16  2  0
 17 12  1  0
 18  1  1  0
 20 19  1  0
 20 18  1  0
 21 20  2  0
  8 22  1  0
  9 23  1  0
 10 24  1  0
 11 25  1  0
 13 26  1  0
 14 27  1  0
 15 28  1  0
 16 29  1  0
 17 30  1  0
 18 31  1  0
 18 32  1  0
M  CHG  1  19  -1
M  END
$$$$
=
     RDKit          3D

 28 29  0  0  0  0  0  0  0  0999 V2000
   28.9850   27.6610   16.5400 C   0  0  2  0  0  0  0  0  0  0  0  0
   30.0030   26.8570   17.3950 C   0  0  0  0  0  0  0  0  0  0  0  0
   30.7670   25.7980   16.6400 C   0  0  0  0  0  0  0  0  0  0  0  0
   30.4190   25.3780   15.4180 C   0  0  0  0  0  0  0  0  0  0  0  0
   29.2060   25.8960   14.6930 C   0  0  0  0  0  0  0  0  0  0  0  0
   28.2050   26.7250   15.5590 C   0  0  2  0  0  0  0  0  0  0  0  0
   27.2910   27.5450   14.6060 C   0  0  0  0  0  0  0  0  0  0  0  0
   27.9110   28.8090   14.0650 C   0  0  0  0  0  0  0  0  0  0  0  0
   29.0320   29.3430   14.5640 C   0  0  0  0  0  0  0  0  0  0  0  0
   29.7640   28.7530   15.7400 C   0  0  0  0  0  0  0  0  0  0  0  0
   28.1700   28.0810   18.7710 O   0  0  0  0  0  1  0  0  0  0  0  0
   28.1820   28.5210   17.5740 C   0  0  0  0  0  0  0  0  0  0  0  0
   27.7090   29.6260   17.1780 O   0  0  0  0  0  0  0  0  0  0  0  0
   27.2770   25.6080   16.1460 C   0  0  0  0  0  0  0  0  0  0  0  0
   26.3280   26.0140   16.8960 O   0  0  0  0  0  0  0  0  0  0  0  0
   27.4640   24.4220   15.7520 O   0  0  0  0  0  1  0  0  0  0  0  0
   30.7293   27.5662   17.8187 H   0  0  0  0  0  0  0  0  0  0  0  0
   29.4152   26.3283   18.1599 H   0  0  0  0  0  0  0  0  0  0  0  0
   31.6516   25.3500   17.1162 H   0  0  0  0  0  0  0  0  0  0  0  0
   31.0460   24.6222   14.9224 H   0  0  0  0  0  0  0  0  0  0  0  0
   29.5524   26.5373   13.8691 H   0  0  0  0  0  0  0  0  0  0  0  0
   28.6512   25.0061   14.3609 H   0  0  0  0  0  0  0  0  0  0  0  0
   27.0230   26.9036   13.7535 H   0  0  0  0  0  0  0  0  0  0  0  0
   26.4227   27.8583   15.2043 H   0  0  0  0  0  0  0  0  0  0  0  0
   27.4191   29.3153   13.2214 H   0  0  0  0  0  0  0  0  0  0  0  0
   29.4361   30.2522   14.0948 H   0  0  0  0  0  0  0  0  0  0  0  0
   30.6946   28.3002   15.3671 H   0  0  0  0  0  0  0  0  0  0  0  0
   29.9247   29.5840   16.4426 H   0  0  0  0  0  0  0  0  0  0  0  0
  2  1  1  0
  3  2  1  0
  4  3  2  0
  5  4  1  0
  6  5  1  0
  6  1  1  0
  7  6  1  0
  8  7  1  0
  9  8  2  0
 10  9  1  0
 10  1  1  0
 12 11  1  0
  1 12  1  1
 13 12  2  0
  6 14  1  1
 15 14  2  0
 16 14  1  0
  2 17  1  0
  2 18  1  0
  3 19  1  0
  4 20  1  0
  5 21  1  0
  5 22  1  0
  7 23  1  0
  7 24  1  0
  8 25  1  0
  9 26  1  0
 10 27  1  0
 10 28  1  0
M  CHG  2  11  -1  16  -1
M  END
$$$$
=
     RDKit          3D

 25 26  0  0  0  0  0  0  0  0999 V2000
   15.0760   13.9190    3.9750 C   0  0  0  0  0  0  0  0  0  0  0  0
   14.7640   15.0390    4.7650 C   0  0  0  0  0  0  0  0  0  0  0  0
   15.7300   15.9980    5.0730 C   0  0  0  0  0  0  0  0  0  0  0  0
   17.0310   15.8720    4.5840 C   0  0  0  0  0  0  0  0  0  0  0  0
   17.3870   14.7480    3.8200 C   0  0  0  0  0  0  0  0  0  0  0  0
   16.3960   13.7960    3.5110 C   0  0  0  0  0  0  0  0  0  0  0  0
   18.6550   14.5390    3.3270 O   0  0  0  0  0  0  0  0  0  0  0  0
   19.6840   14.8760    4.2540 C   0  0  0  0  0  0  0  0  0  0  0  0
   20.0730   16.3360    4.0990 C   0  0  0  0  0  0  0  0  0  0  0  0
   18.8480   17.2200    3.9410 C   0  0  0  0  0  0  0  0  0  0  0  0
   17.8650   16.9100    4.9280 O   0  0  0  0  0  0  0  0  0  0  0  0
   14.2150   11.7280    4.1060 O   0  0  0  0  0  1  0  0  0  0  0  0
   14.0140   12.9020    3.6830 C   0  0  0  0  0  0  0  0  0  0  0  0
   12.9850   13.3190    3.0700 O   0  0  0  0  0  0  0  0  0  0  0  0
   16.7780   12.6920    2.6480 N   0  0  0  0  0  4  0  0  0  0  0  0
   16.2180   12.6160    1.5390 O   0  0  0  0  0  0  0  0  0  0  0  0
   17.5190   11.8260    3.1420 O   0  0  0  0  0  1  0  0  0  0  0  0
   13.7399   15.1618    5.1474 H   0  0  0  0  0  0  0  0  0  0  0  0
   15.4644   16.8583    5.7049 H   0  0  0  0  0  0  0  0  0  0  0  0
   19.3211   14.7035    5.2780 H   0  0  0  0  0  0  0  0  0  0  0  0
   20.5647   14.2473    4.0564 H   0  0  0  0  0  0  0  0  0  0  0  0
   20.6320   16.6545    4.9912 H   0  0  0  0  0  0  0  0  0  0  0  0
   20.6922   16.4362    3.1954 H   0  0  0  0  0  0  0  0  0  0  0  0
   19.1474   18.2729    4.0493 H   0  0  0  0  0  0  0  0  0  0  0  0
   18.4140   17.0442    2.9457 H   0  0  0  0  0  0  0  0  0  0  0  0
  2  1  2  0
  3  2  1  0
  4  3  2  0
  5  4  1  0
  6  1  1  0
  6  5  2  0
  7  5  1  0
  8  7  1  0
  9  8  1  0
 10  9  1  0
 11  4  1  0
 11 10  1  0
 13 12  1  0
 13  1  1  0
 14 13  2  0
 15  6  1  0
 16 15  2  0
 17 15  1  0
  2 18  1  0
  3 19  1  0
  8 20  1  0
  8 21  1  0
  9 22  1  0
  9 23  1  0
 10 24  1  0
 10 25  1  0
M  CHG  3  12  -1  15   1  17  -1
M  END
$$$$
=
     RDKit          3D

 21 21  0  0  0  0  0  0  0  0999 V2000
   17.6800   15.7780    5.8800 C   0  0  0  0  0  0  0  0  0  0  0  0
   18.3610   15.8390    4.5200 C   0  0  1  0  0  0  0  0  0  0  0  0
   18.6990   17.1990    4.2200 O   0  0  0  0  0  0  0  0  0  0  0  0
   20.1050   17.3980    4.5020 C   0  0  2  0  0  0  0  0  0  0  0  0
   20.7210   16.0460    4.8560 C   0  0  2  0  0  0  0  0  0  0  0  0
   19.6560   15.0580    4.4230 C   0  0  0  0  0  0  0  0  0  0  0  0
   20.2260   18.5300    5.5120 C   0  0  0  0  0  0  0  0  0  0  0  0
   21.2370   15.8940    6.2900 C   0  0  0  0  0  0  0  0  0  0  0  0
   22.2040   16.6570    6.5830 O   0  0  0  0  0  0  0  0  0  0  0  0
   20.6830   15.0120    7.0020 O   0  0  0  0  0  1  0  0  0  0  0  0
   18.4389   15.8460    6.6734 H   0  0  0  0  0  0  0  0  0  0  0  0
   16.9744   16.6165    5.9747 H   0  0  0  0  0  0  0  0  0  0  0  0
   17.1346   14.8274    5.9747 H   0  0  0  0  0  0  0  0  0  0  0  0
   17.6364   15.3956    3.8212 H   0  0  0  0  0  0  0  0  0  0  0  0
   20.7029   17.7394    3.6441 H   0  0  0  0  0  0  0  0  0  0  0  0
   21.6758   15.8794    4.3359 H   0  0  0  0  0  0  0  0  0  0  0  0
   19.8324   14.7222    3.3905 H   0  0  0  0  0  0  0  0  0  0  0  0
   19.6472   14.1499    5.0436 H   0  0  0  0  0  0  0  0  0  0  0  0
   20.1820   18.1184    6.5311 H   0  0  0  0  0  0  0  0  0  0  0  0
   21.1848   19.0495    5.3674 H   0  0  0  0  0  0  0  0  0  0  0  0
   19.3987   19.2404    5.3674 H   0  0  0  0  0  0  0  0  0  0  0  0
  2  1  1  0
  3  2  1  0
  4  3  1  0
  5  4  1  0
  6  5  1  0
  6  2  1  0
  7  4  1  0
  8  5  1  0
  9  8  2  0
 10  8  1  0
  1 11  1  0
  1 12  1  0
  1 13  1  0
  2 14  1  6
  4 15  1  6
  5 16  1  6
  6 17  1  0
  6 18  1  0
  7 19  1  0
  7 20  1  0
  7 21  1  0
M  CHG  1  10  -1
M  END
$$$$
=
     RDKit          3D

 40 40  0  0  0  0  0  0  0  0999 V2000
   16.2390   15.1660    3.8300 C   0  0  1  0  0  0  0  0  0  0  0  0
   15.9940   15.3500    5.3360 C   0  0  0  0  0  0  0  0  0  0  0  0
   16.4630   16.7290    5.7850 C   0  0  0  0  0  0  0  0  0  0  0  0
   17.9130   17.0020    5.4030 C   0  0  0  0  0  0  0  0  0  0  0  0
   18.1880   16.7130    3.9980 N   0  0  0  0  0  0  0  0  0  0  0  0
   17.7330   15.3820    3.4860 C   0  0  1  0  0  0  0  0  0  0  0  0
   19.2930   17.2770    3.3670 C   0  0  0  0  0  0  0  0  0  0  0  0
   19.6860   16.9660    2.2490 O   0  0  0  0  0  0  0  0  0  0  0  0
   18.6300   14.1660    3.9380 C   0  0  0  0  0  0  0  0  0  0  0  0
   18.8380   13.2710    3.0670 O   0  0  0  0  0  0  0  0  0  0  0  0
   19.0760   14.2330    5.1200 O   0  0  0  0  0  1  0  0  0  0  0  0
   14.2480   13.5580    3.8990 C   0  0  0  0  0  0  0  0  0  0  0  0
   15.6440   13.8270    3.3550 C   0  0  0  0  0  0  0  0  0  0  0  0
   19.8700   18.2570    4.1160 O   0  0  0  0  0  0  0  0  0  0  0  0
   21.1910   18.0810    4.6820 C   0  0  0  0  0  0  0  0  0  0  0  0
   22.2590   18.7950    3.8450 C   0  0  0  0  0  0  0  0  0  0  0  0
   21.5200   16.6000    4.8940 C   0  0  0  0  0  0  0  0  0  0  0  0
   21.1160   18.7640    6.0570 C   0  0  0  0  0  0  0  0  0  0  0  0
   15.7064   15.9409    3.2592 H   0  0  0  0  0  0  0  0  0  0  0  0
   14.9187   15.2473    5.5437 H   0  0  0  0  0  0  0  0  0  0  0  0
   16.5596   14.5836    5.8862 H   0  0  0  0  0  0  0  0  0  0  0  0
   15.8241   17.4903    5.3136 H   0  0  0  0  0  0  0  0  0  0  0  0
   16.3922   16.7668    6.8821 H   0  0  0  0  0  0  0  0  0  0  0  0
   18.1340   18.0625    5.5943 H   0  0  0  0  0  0  0  0  0  0  0  0
   18.5476   16.3393    6.0097 H   0  0  0  0  0  0  0  0  0  0  0  0
   17.8516   15.4094    2.3928 H   0  0  0  0  0  0  0  0  0  0  0  0
   14.2757   13.5633    4.9986 H   0  0  0  0  0  0  0  0  0  0  0  0
   13.5598   14.3401    3.5457 H   0  0  0  0  0  0  0  0  0  0  0  0
   13.8997   12.5762    3.5457 H   0  0  0  0  0  0  0  0  0  0  0  0
   16.3086   13.0143    3.6833 H   0  0  0  0  0  0  0  0  0  0  0  0
   15.5606   13.8796    2.2594 H   0  0  0  0  0  0  0  0  0  0  0  0
   22.9850   19.2804    4.5138 H   0  0  0  0  0  0  0  0  0  0  0  0
   22.7782   18.0618    3.2104 H   0  0  0  0  0  0  0  0  0  0  0  0
   21.7799   19.5551    3.2104 H   0  0  0  0  0  0  0  0  0  0  0  0
   21.5676   16.3856    5.9719 H   0  0  0  0  0  0  0  0  0  0  0  0
   20.7375   15.9807    4.4312 H   0  0  0  0  0  0  0  0  0  0  0  0
   22.4911   16.3702    4.4312 H   0  0  0  0  0  0  0  0  0  0  0  0
   21.1994   18.0048    6.8486 H   0  0  0  0  0  0  0  0  0  0  0  0
   21.9403   19.4860    6.1532 H   0  0  0  0  0  0  0  0  0  0  0  0
   20.1547   19.2900    6.1532 H   0  0  0  0  0  0  0  0  0  0  0  0
  2  1  1  0
  3  2  1  0
  4  3  1  0
  5  4  1  0
  6  1  1  0
  6  5  1  0
  7  5  1  0
  8  7  2  0
  9  6  1  0
 10  9  2  0
 11  9  1  0
 13 12  1  0
 13  1  1  0
 14  7  1  0
 15 14  1  0
 16 15  1  0
 17 15  1  0
 18 15  1  0
  1 19  1  6
  2 20  1  0
  2 21  1  0
  3 22  1  0
  3 23  1  0
  4 24  1  0
  4 25  1  0
  6 26  1  6
 12 27  1  0
 12 28  1  0
 12 29  1  0
 13 30  1  0
 13 31  1  0
 16 32  1  0
 16 33  1  0
 16 34  1  0
 17 35  1  0
 17 36  1  0
 17 37  1  0
 18 38  1  0
 18 39  1  0
 18 40  1  0
M  CHG  1  11  -1
M  END
$$$$
=
     RDKit          3D

 28 30  0  0  0  0  0  0  0  0999 V2000
   15.4060   13.9820    3.6390 C   0  0  0  0  0  0  0  0  0  0  0  0
   14.7570   14.9110    4.4680 C   0  0  0  0  0  0  0  0  0  0  0  0
   15.4530   15.9580    5.0910 C   0  0  0  0  0  0  0  0  0  0  0  0
   16.8390   16.0800    4.8800 C   0  0  0  0  0  0  0  0  0  0  0  0
   17.4740   15.1550    4.0590 C   0  0  0  0  0  0  0  0  0  0  0  0
   16.7920   14.1070    3.4300 C   0  0  0  0  0  0  0  0  0  0  0  0
   18.8050   15.4940    4.0200 N   0  0  0  0  0  0  0  0  0  0  0  0
   19.0600   16.6040    4.7970 C   0  0  0  0  0  0  0  0  0  0  0  0
   17.8400   16.9860    5.3310 C   0  0  0  0  0  0  0  0  0  0  0  0
   20.3920   17.1940    4.9370 C   0  0  0  0  0  0  0  0  0  0  0  0
   20.8080   18.2150    4.0740 C   0  0  0  0  0  0  0  0  0  0  0  0
   22.0790   18.7840    4.1980 C   0  0  0  0  0  0  0  0  0  0  0  0
   22.9480   18.3370    5.1900 C   0  0  0  0  0  0  0  0  0  0  0  0
   22.5470   17.3260    6.0600 C   0  0  0  0  0  0  0  0  0  0  0  0
   21.2760   16.7570    5.9340 C   0  0  0  0  0  0  0  0  0  0  0  0
   15.2960   12.0230    2.2830 O   0  0  0  0  0  1  0  0  0  0  0  0
   14.6300   12.8570    2.9760 C   0  0  0  0  0  0  0  0  0  0  0  0
   13.3720   12.8310    3.1610 O   0  0  0  0  0  0  0  0  0  0  0  0
   13.6737   14.8154    4.6335 H   0  0  0  0  0  0  0  0  0  0  0  0
   14.9223   16.6740    5.7358 H   0  0  0  0  0  0  0  0  0  0  0  0
   17.3286   13.3954    2.7853 H   0  0  0  0  0  0  0  0  0  0  0  0
   19.5195   14.9849    3.4803 H   0  0  0  0  0  0  0  0  0  0  0  0
   17.6725   17.8475    5.9942 H   0  0  0  0  0  0  0  0  0  0  0  0
   20.1264   18.5739    3.2887 H   0  0  0  0  0  0  0  0  0  0  0  0
   22.3925   19.5847    3.5120 H   0  0  0  0  0  0  0  0  0  0  0  0
   23.9495   18.7816    5.2864 H   0  0  0  0  0  0  0  0  0  0  0  0
   23.2308   16.9749    6.8469 H   0  0  0  0  0  0  0  0  0  0  0  0
   20.9663   15.9583    6.6241 H   0  0  0  0  0  0  0  0  0  0  0  0
  2  1  2  0
  3  2  1  0
  4  3  2  0
  5  4  1  0
  6  1  1  0
  6  5  2  0
  7  5  1  0
  8  7  1  0
  9  4  1  0
  9  8  2  0
 10  8  1  0
 11 10  2  0
 12 11  1  0
 13 12  2  0
 14 13  1  0
 15 10  1  0
 15 14  2  0
 17 16  1  0
 17  1  1  0
 18 17  2  0
  2 19  1  0
  3 20  1  0
  6 21  1  0
  7 22  1  0
  9 23  1  0
 11 24  1  0
 12 25  1  0
 13 26  1  0
 14 27  1  0
 15 28  1  0
M  CHG  1  16  -1
M  END
$$$$
=
     RDKit          3D

 28 29  0  0  0  0  0  0  0  0999 V2000
   18.9980   16.8940    4.6330 C   0  0  0  0  0  0  0  0  0  0  0  0
   18.1930   17.4330    5.6410 C   0  0  0  0  0  0  0  0  0  0  0  0
   16.9050   16.9340    5.8690 C   0  0  0  0  0  0  0  0  0  0  0  0
   16.3770   15.8960    5.1140 C   0  0  0  0  0  0  0  0  0  0  0  0
   17.1800   15.3460    4.0960 C   0  0  0  0  0  0  0  0  0  0  0  0
   18.4770   15.8450    3.8630 C   0  0  0  0  0  0  0  0  0  0  0  0
   16.6480   14.2990    3.3340 C   0  0  0  0  0  0  0  0  0  0  0  0
   15.3580   13.8220    3.5860 C   0  0  0  0  0  0  0  0  0  0  0  0
   14.6550   14.4360    4.6110 C   0  0  0  0  0  0  0  0  0  0  0  0
   15.1350   15.4560    5.3760 N   0  0  0  0  0  0  0  0  0  0  0  0
   20.8260   18.4520    5.3960 C   0  0  0  0  0  0  0  0  0  0  0  0
   20.3970   17.4100    4.3590 C   0  0  0  0  0  0  0  0  0  0  0  0
   20.5230   17.9700    2.9400 C   0  0  0  0  0  0  0  0  0  0  0  0
   14.7490   12.7030    2.7930 C   0  0  0  0  0  0  0  0  0  0  0  0
   13.4820   12.6180    2.7910 O   0  0  0  0  0  0  0  0  0  0  0  0
   15.5500   11.9240    2.1870 O   0  0  0  0  0  1  0  0  0  0  0  0
   18.5754   18.2572    6.2610 H   0  0  0  0  0  0  0  0  0  0  0  0
   16.2941   17.3772    6.6693 H   0  0  0  0  0  0  0  0  0  0  0  0
   19.0907   15.4041    3.0637 H   0  0  0  0  0  0  0  0  0  0  0  0
   17.2494   13.8481    2.5309 H   0  0  0  0  0  0  0  0  0  0  0  0
   13.6378   14.0741    4.8215 H   0  0  0  0  0  0  0  0  0  0  0  0
   20.6614   18.0521    6.4074 H   0  0  0  0  0  0  0  0  0  0  0  0
   21.8929   18.6843    5.2627 H   0  0  0  0  0  0  0  0  0  0  0  0
   20.2319   19.3681    5.2627 H   0  0  0  0  0  0  0  0  0  0  0  0
   21.0789   16.5509    4.4431 H   0  0  0  0  0  0  0  0  0  0  0  0
   20.7642   19.0421    2.9890 H   0  0  0  0  0  0  0  0  0  0  0  0
   21.3239   17.4380    2.4056 H   0  0  0  0  0  0  0  0  0  0  0  0
   19.5714   17.8323    2.4056 H   0  0  0  0  0  0  0  0  0  0  0  0
  2  1  2  0
  3  2  1  0
  4  3  2  0
  5  4  1  0
  6  5  2  0
  6  1  1  0
  7  5  1  0
  8  7  2  0
  9  8  1  0
 10  9  2  0
 10  4  1  0
 12 11  1  0
 12  1  1  0
 13 12  1  0
 14  8  1  0
 15 14  2  0
 16 14  1  0
  2 17  1  0
  3 18  1  0
  6 19  1  0
  7 20  1  0
  9 21  1  0
 11 22  1  0
 11 23  1  0
 11 24  1  0
 12 25  1  0
 13 26  1  0
 13 27  1  0
 13 28  1  0
M  CHG  1  16  -1
M  END
$$$$
=
     RDKit          3D

 23 23  0  0  0  0  0  0  0  0999 V2000
   19.0390   15.3630    4.2460 S   0  0  0  0  0  6  0  0  0  0  0  0
   19.1860   16.8030    4.1690 O   0  0  0  0  0  0  0  0  0  0  0  0
   19.4900   14.5250    3.1450 O   0  0  0  0  0  0  0  0  0  0  0  0
   17.2530   15.0670    4.3560 C   0  0  0  0  0  0  0  0  0  0  0  0
   16.6960   14.1580    3.4410 C   0  0  0  0  0  0  0  0  0  0  0  0
   15.3270   13.8930    3.4590 C   0  0  0  0  0  0  0  0  0  0  0  0
   14.5100   14.5380    4.3820 C   0  0  0  0  0  0  0  0  0  0  0  0
   15.0590   15.4480    5.2870 C   0  0  0  0  0  0  0  0  0  0  0  0
   16.4380   15.7250    5.2980 C   0  0  0  0  0  0  0  0  0  0  0  0
   16.9510   16.7370    6.2870 C   0  0  0  0  0  0  0  0  0  0  0  0
   19.5810   14.6870    5.7870 C   0  0  0  0  0  0  0  0  0  0  0  0
   21.7580   15.2900    5.1850 O   0  0  0  0  0  1  0  0  0  0  0  0
   20.9160   15.2650    6.1230 C   0  0  0  0  0  0  0  0  0  0  0  0
   21.0770   15.5560    7.3440 O   0  0  0  0  0  0  0  0  0  0  0  0
   17.3422   13.6534    2.7076 H   0  0  0  0  0  0  0  0  0  0  0  0
   14.8944   13.1761    2.7456 H   0  0  0  0  0  0  0  0  0  0  0  0
   13.4299   14.3306    4.3987 H   0  0  0  0  0  0  0  0  0  0  0  0
   14.4005   15.9583    6.0054 H   0  0  0  0  0  0  0  0  0  0  0  0
   16.7679   16.3757    7.3097 H   0  0  0  0  0  0  0  0  0  0  0  0
   18.0311   16.8814    6.1370 H   0  0  0  0  0  0  0  0  0  0  0  0
   16.4289   17.6935    6.1370 H   0  0  0  0  0  0  0  0  0  0  0  0
   18.8587   14.9412    6.5767 H   0  0  0  0  0  0  0  0  0  0  0  0
   19.6566   13.5924    5.7090 H   0  0  0  0  0  0  0  0  0  0  0  0
  2  1  2  0
  3  1  2  0
  4  1  1  0
  5  4  2  0
  6  5  1  0
  7  6  2  0
  8  7  1  0
  9  8  2  0
  9  4  1  0
 10  9  1  0
 11  1  1  0
 13 12  1  0
 13 11  1  0
 14 13  2  0
  5 15  1  0
  6 16  1  0
  7 17  1  0
  8 18  1  0
 10 19  1  0
 10 20  1  0
 10 21  1  0
 11 22  1  0
 11 23  1  0
M  CHG  1  12  -1
M  END
$$$$
=
     RDKit          3D

 31 32  0  0  0  0  0  0  0  0999 V2000
   30.5370   29.4710   15.9070 C   0  0  0  0  0  0  0  0  0  0  0  0
   29.0790   29.5150   16.3720 C   0  0  2  0  0  0  0  0  0  0  0  0
   28.9010   28.8250   17.7360 C   0  0  0  0  0  0  0  0  0  0  0  0
   28.9630   27.2980   17.6340 C   0  0  0  0  0  0  0  0  0  0  0  0
   27.9940   26.7850   16.5650 C   0  0  0  0  0  0  0  0  0  0  0  0
   28.3200   27.4430   15.2990 N   0  0  0  0  0  0  0  0  0  0  0  0
   28.1380   28.8970   15.3180 C   0  0  0  0  0  0  0  0  0  0  0  0
   27.7670   26.8860   14.1460 C   0  0  0  0  0  0  0  0  0  0  0  0
   28.6620   26.7810   13.1220 N   0  0  0  0  0  0  0  0  0  0  0  0
   28.2680   26.2100   11.9640 C   0  0  0  0  0  0  0  0  0  0  0  0
   27.0000   25.7240   11.7360 C   0  0  0  0  0  0  0  0  0  0  0  0
   26.0800   25.8490   12.7630 C   0  0  0  0  0  0  0  0  0  0  0  0
   26.4490   26.4480   13.9830 C   0  0  0  0  0  0  0  0  0  0  0  0
   25.3810   26.5980   15.0120 C   0  0  0  0  0  0  0  0  0  0  0  0
   24.9740   25.5280   15.5650 O   0  0  0  0  0  0  0  0  0  0  0  0
   24.9340   27.7670   15.2270 O   0  0  0  0  0  1  0  0  0  0  0  0
   31.2010   29.4510   16.7837 H   0  0  0  0  0  0  0  0  0  0  0  0
   30.7017   28.5675   15.3016 H   0  0  0  0  0  0  0  0  0  0  0  0
   30.7559   30.3629   15.3016 H   0  0  0  0  0  0  0  0  0  0  0  0
   28.8059   30.5736   16.4936 H   0  0  0  0  0  0  0  0  0  0  0  0
   29.7000   29.1661   18.4107 H   0  0  0  0  0  0  0  0  0  0  0  0
   27.9055   29.0940   18.1190 H   0  0  0  0  0  0  0  0  0  0  0  0
   29.9866   26.9955   17.3680 H   0  0  0  0  0  0  0  0  0  0  0  0
   28.6769   26.8677   18.6051 H   0  0  0  0  0  0  0  0  0  0  0  0
   28.1014   25.6956   16.4570 H   0  0  0  0  0  0  0  0  0  0  0  0
   26.9564   27.0090   16.8536 H   0  0  0  0  0  0  0  0  0  0  0  0
   28.3753   29.3100   14.3265 H   0  0  0  0  0  0  0  0  0  0  0  0
   27.0943   29.1343   15.5717 H   0  0  0  0  0  0  0  0  0  0  0  0
   29.0057   26.1279   11.1521 H   0  0  0  0  0  0  0  0  0  0  0  0
   26.7293   25.2560   10.7780 H   0  0  0  0  0  0  0  0  0  0  0  0
   25.0537   25.4779   12.6251 H   0  0  0  0  0  0  0  0  0  0  0  0
  2  1  1  0
  3  2  1  0
  4  3  1  0
  5  4  1  0
  6  5  1  0
  7  6  1  0
  7  2  1  0
  8  6  1  0
  9  8  2  0
 10  9  1  0
 11 10  2  0
 12 11  1  0
 13 12  2  0
 13  8  1  0
 14 13  1  0
 15 14  2  0
 16 14  1  0
  1 17  1  0
  1 18  1  0
  1 19  1  0
  2 20  1  1
  3 21  1  0
  3 22  1  0
  4 23  1  0
  4 24  1  0
  5 25  1  0
  5 26  1  0
  7 27  1  0
  7 28  1  0
 10 29  1  0
 11 30  1  0
 12 31  1  0
M  CHG  1  16  -1
M  END
$$$$
=
     RDKit          3D

 50 52  0  0  0  0  0  0  0  0999 V2000
   25.8350   27.0220   14.3230 C   0  0  0  0  0  0  0  0  0  0  0  0
   26.9380   27.7700   14.6690 C   0  0  0  0  0  0  0  0  0  0  0  0
   27.1200   27.9750   16.0190 C   0  0  0  0  0  0  0  0  0  0  0  0
   26.1380   27.7600   16.9240 N   0  0  0  0  0  0  0  0  0  0  0  0
   24.9890   27.2420   16.4470 C   0  0  0  0  0  0  0  0  0  0  0  0
   24.8170   26.8200   15.1850 N   0  0  0  0  0  0  0  0  0  0  0  0
   23.8760   27.0010   17.4160 C   0  0  0  0  0  0  0  0  0  0  0  0
   28.5250   28.1330   16.5650 C   0  0  2  0  0  0  0  0  0  0  0  0
   29.0510   29.5680   16.7320 C   0  0  0  0  0  0  0  0  0  0  0  0
   30.3340   29.6470   15.9170 C   0  0  0  0  0  0  0  0  0  0  0  0
   30.8460   28.2200   15.8690 C   0  0  0  0  0  0  0  0  0  0  0  0
   29.5940   27.4320   15.7190 N   0  0  1  0  0  4  0  0  0  0  0  0
   29.6280   25.9260   15.7480 C   0  0  0  0  0  0  0  0  0  0  0  0
   30.8140   25.3910   16.5630 C   0  0  0  0  0  0  0  0  0  0  0  0
   30.8450   23.8610   16.5610 C   0  0  0  0  0  0  0  0  0  0  0  0
   30.8380   23.2900   15.1470 C   0  0  0  0  0  0  0  0  0  0  0  0
   29.6690   23.8320   14.3310 C   0  0  0  0  0  0  0  0  0  0  0  0
   29.6620   25.3590   14.3200 C   0  0  0  0  0  0  0  0  0  0  0  0
   25.8280   26.2180   13.0400 C   0  0  0  0  0  0  0  0  0  0  0  0
   25.0530   24.8900   13.0920 C   0  0  0  0  0  0  0  0  0  0  0  0
   25.8190   23.5130   14.8750 O   0  0  0  0  0  1  0  0  0  0  0  0
   25.8880   23.7390   13.6440 C   0  0  0  0  0  0  0  0  0  0  0  0
   26.6470   23.1620   12.7950 O   0  0  0  0  0  0  0  0  0  0  0  0
   27.6290   28.1774   13.9163 H   0  0  0  0  0  0  0  0  0  0  0  0
   24.2599   27.0841   18.4435 H   0  0  0  0  0  0  0  0  0  0  0  0
   23.0846   27.7486   17.2587 H   0  0  0  0  0  0  0  0  0  0  0  0
   23.4647   25.9930   17.2587 H   0  0  0  0  0  0  0  0  0  0  0  0
   28.3864   27.6747   17.5553 H   0  0  0  0  0  0  0  0  0  0  0  0
   28.3135   30.2910   16.3534 H   0  0  0  0  0  0  0  0  0  0  0  0
   29.2326   29.8080   17.7900 H   0  0  0  0  0  0  0  0  0  0  0  0
   30.1274   30.0196   14.9029 H   0  0  0  0  0  0  0  0  0  0  0  0
   31.0668   30.3382   16.3589 H   0  0  0  0  0  0  0  0  0  0  0  0
   31.5167   28.0673   15.0106 H   0  0  0  0  0  0  0  0  0  0  0  0
   31.4381   27.9373   16.7519 H   0  0  0  0  0  0  0  0  0  0  0  0
   29.3453   27.4503   14.7196 H   0  0  0  0  0  0  0  0  0  0  0  0
   28.7069   25.5894   16.2462 H   0  0  0  0  0  0  0  0  0  0  0  0
   31.7495   25.7689   16.1247 H   0  0  0  0  0  0  0  0  0  0  0  0
   30.7044   25.7347   17.6022 H   0  0  0  0  0  0  0  0  0  0  0  0
   31.7570   23.5238   17.0754 H   0  0  0  0  0  0  0  0  0  0  0  0
   29.9414   23.5028   17.0759 H   0  0  0  0  0  0  0  0  0  0  0  0
   31.7794   23.5619   14.6471 H   0  0  0  0  0  0  0  0  0  0  0  0
   30.7330   22.1972   15.2166 H   0  0  0  0  0  0  0  0  0  0  0  0
   29.7536   23.4664   13.2970 H   0  0  0  0  0  0  0  0  0  0  0  0
   28.7327   23.4834   14.7912 H   0  0  0  0  0  0  0  0  0  0  0  0
   30.5698   25.7181   13.8131 H   0  0  0  0  0  0  0  0  0  0  0  0
   28.7605   25.6989   13.7892 H   0  0  0  0  0  0  0  0  0  0  0  0
   25.3791   26.8412   12.2525 H   0  0  0  0  0  0  0  0  0  0  0  0
   26.8768   25.9471   12.8489 H   0  0  0  0  0  0  0  0  0  0  0  0
   24.1702   25.0233   13.7345 H   0  0  0  0  0  0  0  0  0  0  0  0
   24.7720   24.6302   12.0607 H   0  0  0  0  0  0  0  0  0  0  0  0
  2  1  2  0
  3  2  1  0
  4  3  2  0
  5  4  1  0
  6  1  1  0
  6  5  2  0
  7  5  1  0
  8  3  1  0
  9  8  1  0
 10  9  1  0
 11 10  1  0
 12 11  1  0
 12  8  1  0
 13 12  1  0
 14 13  1  0
 15 14  1  0
 16 15  1  0
 17 16  1  0
 18 17  1  0
 18 13  1  0
 19  1  1  0
 20 19  1  0
 22 21  1  0
 22 20  1  0
 23 22  2  0
  2 24  1  0
  7 25  1  0
  7 26  1  0
  7 27  1  0
  8 28  1  1
  9 29  1  0
  9 30  1  0
 10 31  1  0
 10 32  1  0
 11 33  1  0
 11 34  1  0
 12 35  1  6
 13 36  1  0
 14 37  1  0
 14 38  1  0
 15 39  1  0
 15 40  1  0
 16 41  1  0
 16 42  1  0
 17 43  1  0
 17 44  1  0
 18 45  1  0
 18 46  1  0
 19 47  1  0
 19 48  1  0
 20 49  1  0
 20 50  1  0
M  CHG  2  12   1  21  -1
M  END
$$$$
=
     RDKit          3D

 39 40  0  0  0  0  0  0  0  0999 V2000
   17.3930   15.6590    4.0090 N   0  0  0  0  0  0  0  0  0  0  0  0
   18.1380   16.0350    2.9300 N   0  0  0  0  0  0  0  0  0  0  0  0
   19.0320   16.9060    3.3990 C   0  0  0  0  0  0  0  0  0  0  0  0
   18.9300   17.0670    4.7980 C   0  0  0  0  0  0  0  0  0  0  0  0
   17.9070   16.2090    5.1800 C   0  0  0  0  0  0  0  0  0  0  0  0
   17.4780   15.8810    6.5640 C   0  0  0  0  0  0  0  0  0  0  0  0
   19.9940   17.5590    2.4770 C   0  0  0  0  0  0  0  0  0  0  0  0
   13.9580   13.2070    3.4100 C   0  0  0  0  0  0  0  0  0  0  0  0
   15.2140   12.7710    2.9760 C   0  0  0  0  0  0  0  0  0  0  0  0
   16.3560   13.5610    3.1670 C   0  0  0  0  0  0  0  0  0  0  0  0
   16.2590   14.8120    3.7850 C   0  0  0  0  0  0  0  0  0  0  0  0
   14.9970   15.2390    4.2340 C   0  0  0  0  0  0  0  0  0  0  0  0
   13.8590   14.4500    4.0410 C   0  0  0  0  0  0  0  0  0  0  0  0
   11.4580   13.1920    3.2220 C   0  0  0  0  0  0  0  0  0  0  0  0
   12.7320   12.3610    3.1850 C   0  0  0  0  0  0  0  0  0  0  0  0
   19.7760   17.9450    5.6720 C   0  0  0  0  0  0  0  0  0  0  0  0
   21.2370   17.5200    5.6870 C   0  0  0  0  0  0  0  0  0  0  0  0
   21.4280   16.0520    6.0620 C   0  0  0  0  0  0  0  0  0  0  0  0
   21.8310   15.3240    5.1110 O   0  0  0  0  0  0  0  0  0  0  0  0
   21.1690   15.7340    7.2550 O   0  0  0  0  0  1  0  0  0  0  0  0
   18.1396   16.3869    7.2826 H   0  0  0  0  0  0  0  0  0  0  0  0
   16.4428   16.2201    6.7171 H   0  0  0  0  0  0  0  0  0  0  0  0
   17.5339   14.7931    6.7171 H   0  0  0  0  0  0  0  0  0  0  0  0
   20.7649   18.0823    3.0618 H   0  0  0  0  0  0  0  0  0  0  0  0
   20.4696   16.7963    1.8429 H   0  0  0  0  0  0  0  0  0  0  0  0
   19.4607   18.2825    1.8429 H   0  0  0  0  0  0  0  0  0  0  0  0
   15.3069   11.7947    2.4779 H   0  0  0  0  0  0  0  0  0  0  0  0
   17.3362   13.1942    2.8282 H   0  0  0  0  0  0  0  0  0  0  0  0
   14.9035   16.2086    4.7449 H   0  0  0  0  0  0  0  0  0  0  0  0
   12.8793   14.8100    4.3881 H   0  0  0  0  0  0  0  0  0  0  0  0
   11.1721   13.3785    4.2677 H   0  0  0  0  0  0  0  0  0  0  0  0
   11.6311   14.1514    2.7125 H   0  0  0  0  0  0  0  0  0  0  0  0
   10.6497   12.6469    2.7125 H   0  0  0  0  0  0  0  0  0  0  0  0
   12.6796   11.5936    3.9714 H   0  0  0  0  0  0  0  0  0  0  0  0
   12.8117   11.9012    2.1889 H   0  0  0  0  0  0  0  0  0  0  0  0
   19.7132   18.9782    5.2999 H   0  0  0  0  0  0  0  0  0  0  0  0
   19.3934   17.8607    6.6999 H   0  0  0  0  0  0  0  0  0  0  0  0
   21.6599   17.6836    4.6848 H   0  0  0  0  0  0  0  0  0  0  0  0
   21.7473   18.1239    6.4518 H   0  0  0  0  0  0  0  0  0  0  0  0
  2  1  1  0
  3  2  2  0
  4  3  1  0
  5  1  1  0
  5  4  2  0
  6  5  1  0
  7  3  1  0
  9  8  2  0
 10  9  1  0
 11 10  2  0
 11  1  1  0
 12 11  1  0
 13 12  2  0
 13  8  1  0
 15 14  1  0
 15  8  1  0
 16  4  1  0
 17 16  1  0
 18 17  1  0
 19 18  2  0
 20 18  1  0
  6 21  1  0
  6 22  1  0
  6 23  1  0
  7 24  1  0
  7 25  1  0
  7 26  1  0
  9 27  1  0
 10 28  1  0
 12 29  1  0
 13 30  1  0
 14 31  1  0
 14 32  1  0
 14 33  1  0
 15 34  1  0
 15 35  1  0
 16 36  1  0
 16 37  1  0
 17 38  1  0
 17 39  1  0
M  CHG  1  20  -1
M  END
$$$$
=
     RDKit          3D

 32 33  0  0  0  0  0  0  0  0999 V2000
   18.3830   13.7050    4.0200 O   0  0  0  0  0  0  0  0  0  0  0  0
   18.1720   14.9130    4.0080 C   0  0  0  0  0  0  0  0  0  0  0  0
   19.1220   15.8730    4.2540 N   0  0  0  0  0  0  0  0  0  0  0  0
   18.9040   17.2880    4.2990 C   0  0  2  0  0  0  0  0  0  0  0  0
   19.5200   18.2320    3.3110 C   0  0  0  0  0  0  0  0  0  0  0  0
   20.2230   17.9520    4.6130 C   0  0  2  0  0  0  0  0  0  0  0  0
   21.2520   16.8510    4.7460 C   0  0  0  0  0  0  0  0  0  0  0  0
   20.4400   15.5430    4.8420 C   0  0  1  0  0  0  0  0  0  0  0  0
   20.4360   15.1320    6.3400 C   0  0  0  0  0  0  0  0  0  0  0  0
   21.3300   15.6970    7.0420 O   0  0  0  0  0  0  0  0  0  0  0  0
   19.5350   14.3240    6.7100 O   0  0  0  0  0  1  0  0  0  0  0  0
   16.9690   15.4750    3.6910 O   0  0  0  0  0  0  0  0  0  0  0  0
   15.8090   15.2560    4.5260 C   0  0  0  0  0  0  0  0  0  0  0  0
   14.8360   16.3810    4.1360 C   0  0  0  0  0  0  0  0  0  0  0  0
   16.1500   15.4050    6.0130 C   0  0  0  0  0  0  0  0  0  0  0  0
   15.1430   13.9100    4.2200 C   0  0  0  0  0  0  0  0  0  0  0  0
   17.8628   17.2288    4.6487 H   0  0  0  0  0  0  0  0  0  0  0  0
   19.9357   17.8462    2.3685 H   0  0  0  0  0  0  0  0  0  0  0  0
   19.1821   19.1408    2.7914 H   0  0  0  0  0  0  0  0  0  0  0  0
   20.6949   18.6535    5.3167 H   0  0  0  0  0  0  0  0  0  0  0  0
   21.9111   16.8314    3.8655 H   0  0  0  0  0  0  0  0  0  0  0  0
   21.8978   16.9977    5.6243 H   0  0  0  0  0  0  0  0  0  0  0  0
   20.8354   14.6730    4.2972 H   0  0  0  0  0  0  0  0  0  0  0  0
   14.4319   16.8482    5.0462 H   0  0  0  0  0  0  0  0  0  0  0  0
   15.3693   17.1373    3.5414 H   0  0  0  0  0  0  0  0  0  0  0  0
   14.0107   15.9623    3.5414 H   0  0  0  0  0  0  0  0  0  0  0  0
   15.3097   15.0378    6.6205 H   0  0  0  0  0  0  0  0  0  0  0  0
   17.0521   14.8190    6.2428 H   0  0  0  0  0  0  0  0  0  0  0  0
   16.3329   16.4651    6.2428 H   0  0  0  0  0  0  0  0  0  0  0  0
   14.8918   13.4024    5.1630 H   0  0  0  0  0  0  0  0  0  0  0  0
   14.2246   14.0791    3.6387 H   0  0  0  0  0  0  0  0  0  0  0  0
   15.8346   13.2825    3.6387 H   0  0  0  0  0  0  0  0  0  0  0  0
  2  1  2  0
  3  2  1  0
  4  3  1  0
  5  4  1  0
  6  5  1  0
  6  4  1  0
  7  6  1  0
  8  3  1  0
  8  7  1  0
  9  8  1  0
 10  9  2  0
 11  9  1  0
 12  2  1  0
 13 12  1  0
 14 13  1  0
 15 13  1  0
 16 13  1  0
  4 17  1  1
  5 18  1  0
  5 19  1  0
  6 20  1  1
  7 21  1  0
  7 22  1  0
  8 23  1  6
 14 24  1  0
 14 25  1  0
 14 26  1  0
 15 27  1  0
 15 28  1  0
 15 29  1  0
 16 30  1  0
 16 31  1  0
 16 32  1  0
M  CHG  1  11  -1
M  END
$$$$
=
     RDKit          3D

 27 28  0  0  0  0  0  0  0  0999 V2000
   19.1110   16.6950    5.6040 N   0  0  0  0  0  0  0  0  0  0  0  0
   18.4510   15.7170    4.9060 C   0  0  0  0  0  0  0  0  0  0  0  0
   19.2390   14.4090    4.0890 S   0  0  0  0  0  0  0  0  0  0  0  0
   17.7310   13.7840    3.5660 C   0  0  0  0  0  0  0  0  0  0  0  0
   16.7090   14.5760    4.0800 C   0  0  0  0  0  0  0  0  0  0  0  0
   17.1340   15.6410    4.8530 N   0  0  0  0  0  0  0  0  0  0  0  0
   15.3660   14.2450    3.7950 C   0  0  0  0  0  0  0  0  0  0  0  0
   15.1140   13.1170    2.9830 C   0  0  0  0  0  0  0  0  0  0  0  0
   16.1540   12.3430    2.4740 C   0  0  0  0  0  0  0  0  0  0  0  0
   17.4790   12.6640    2.7590 C   0  0  0  0  0  0  0  0  0  0  0  0
   18.3100   17.8720    5.9430 C   0  0  0  0  0  0  0  0  0  0  0  0
   14.2330   15.0650    4.3400 C   0  0  0  0  0  0  0  0  0  0  0  0
   14.1120   14.9970    5.6950 F   0  0  0  0  0  0  0  0  0  0  0  0
   14.3000   16.3850    4.0200 F   0  0  0  0  0  0  0  0  0  0  0  0
   13.0150   14.6520    3.8650 F   0  0  0  0  0  0  0  0  0  0  0  0
   20.5200   17.0160    5.2620 C   0  0  0  0  0  0  0  0  0  0  0  0
   22.6450   17.2920    6.3120 O   0  0  0  0  0  1  0  0  0  0  0  0
   21.5930   16.5850    6.2940 C   0  0  0  0  0  0  0  0  0  0  0  0
   21.2810   15.6010    7.0270 O   0  0  0  0  0  0  0  0  0  0  0  0
   14.0747   12.8442    2.7478 H   0  0  0  0  0  0  0  0  0  0  0  0
   15.9272   11.4716    1.8421 H   0  0  0  0  0  0  0  0  0  0  0  0
   18.3055   12.0561    2.3623 H   0  0  0  0  0  0  0  0  0  0  0  0
   18.2445   17.9683    7.0368 H   0  0  0  0  0  0  0  0  0  0  0  0
   18.7843   18.7715    5.5235 H   0  0  0  0  0  0  0  0  0  0  0  0
   17.2992   17.7609    5.5235 H   0  0  0  0  0  0  0  0  0  0  0  0
   20.7544   16.5207    4.3082 H   0  0  0  0  0  0  0  0  0  0  0  0
   20.5704   18.1143    5.2282 H   0  0  0  0  0  0  0  0  0  0  0  0
  2  1  1  0
  3  2  1  0
  4  3  1  0
  5  4  2  0
  6  5  1  0
  6  2  2  0
  7  5  1  0
  8  7  2  0
  9  8  1  0
 10  9  2  0
 10  4  1  0
 11  1  1  0
 12  7  1  0
 13 12  1  0
 14 12  1  0
 15 12  1  0
 16  1  1  0
 18 16  1  0
 18 17  1  0
 19 18  2  0
  8 20  1  0
  9 21  1  0
 10 22  1  0
 11 23  1  0
 11 24  1  0
 11 25  1  0
 16 26  1  0
 16 27  1  0
M  CHG  1  17  -1
M  END
$$$$
=
     RDKit          3D

 34 35  0  0  0  0  0  0  0  0999 V2000
   16.8100   14.5380    3.5690 O   0  0  0  0  0  0  0  0  0  0  0  0
   16.2800   14.9990    4.5690 C   0  0  0  0  0  0  0  0  0  0  0  0
   14.9720   14.7300    4.9640 N   0  0  0  0  0  0  0  0  0  0  0  0
   16.8740   15.8600    5.4790 N   0  0  0  0  0  0  0  0  0  0  0  0
   13.9970   13.9970    4.2570 C   0  0  0  0  0  0  0  0  0  0  0  0
   14.2930   13.0720    3.2510 C   0  0  0  0  0  0  0  0  0  0  0  0
   13.2720   12.3920    2.5750 C   0  0  0  0  0  0  0  0  0  0  0  0
   11.9400   12.6320    2.8930 C   0  0  0  0  0  0  0  0  0  0  0  0
   11.6450   13.5530    3.8970 C   0  0  0  0  0  0  0  0  0  0  0  0
   12.6570   14.2430    4.5750 C   0  0  0  0  0  0  0  0  0  0  0  0
    9.9570   13.9040    4.2750 S   0  0  0  0  0  6  0  0  0  0  0  0
    9.8850   14.2720    5.6730 O   0  0  0  0  0  0  0  0  0  0  0  0
    9.4270   14.7480    3.2220 O   0  0  0  0  0  0  0  0  0  0  0  0
    9.1650   12.5290    4.1470 F   0  0  0  0  0  0  0  0  0  0  0  0
   18.2200   16.2870    5.5150 C   0  0  0  0  0  0  0  0  0  0  0  0
   18.5210   17.4820    4.8470 C   0  0  0  0  0  0  0  0  0  0  0  0
   19.8230   17.9900    4.8420 C   0  0  0  0  0  0  0  0  0  0  0  0
   20.8580   17.3220    5.5090 C   0  0  0  0  0  0  0  0  0  0  0  0
   20.5400   16.1310    6.1780 C   0  0  0  0  0  0  0  0  0  0  0  0
   19.2410   15.6140    6.1840 C   0  0  0  0  0  0  0  0  0  0  0  0
   22.2610   17.8800    5.5030 C   0  0  0  0  0  0  0  0  0  0  0  0
   23.0060   17.6250    6.5000 O   0  0  0  0  0  0  0  0  0  0  0  0
   22.5790   18.5690    4.4780 O   0  0  0  0  0  1  0  0  0  0  0  0
   21.4950   15.4180    6.8600 O   0  0  0  0  0  0  0  0  0  0  0  0
   14.6839   15.1100    5.8770 H   0  0  0  0  0  0  0  0  0  0  0  0
   16.2602   16.2330    6.2173 H   0  0  0  0  0  0  0  0  0  0  0  0
   15.3426   12.8756    2.9868 H   0  0  0  0  0  0  0  0  0  0  0  0
   13.5251   11.6650    1.7892 H   0  0  0  0  0  0  0  0  0  0  0  0
   11.1337   12.1048    2.3621 H   0  0  0  0  0  0  0  0  0  0  0  0
   12.3997   14.9754    5.3544 H   0  0  0  0  0  0  0  0  0  0  0  0
   17.7231   18.0263    4.3206 H   0  0  0  0  0  0  0  0  0  0  0  0
   20.0379   18.9269    4.3072 H   0  0  0  0  0  0  0  0  0  0  0  0
   19.0247   14.6762    6.7166 H   0  0  0  0  0  0  0  0  0  0  0  0
   21.2485   14.5797    7.3253 H   0  0  0  0  0  0  0  0  0  0  0  0
  2  1  2  0
  3  2  1  0
  4  2  1  0
  5  3  1  0
  6  5  2  0
  7  6  1  0
  8  7  2  0
  9  8  1  0
 10  9  2  0
 10  5  1  0
 11  9  1  0
 12 11  2  0
 13 11  2  0
 14 11  1  0
 15  4  1  0
 16 15  2  0
 17 16  1  0
 18 17  2  0
 19 18  1  0
 20 19  2  0
 20 15  1  0
 21 18  1  0
 22 21  2  0
 23 21  1  0
 24 19  1  0
  3 25  1  0
  4 26  1  0
  6 27  1  0
  7 28  1  0
  8 29  1  0
 10 30  1  0
 16 31  1  0
 17 32  1  0
 20 33  1  0
 24 34  1  0
M  CHG  1  23  -1
M  END
$$$$
=
     RDKit          3D

 51 52  0  0  0  0  0  0  0  0999 V2000
   28.3100   24.5800   11.6600 N   0  0  0  0  0  4  0  0  0  0  0  0
   28.5290   24.1120   13.0670 C   0  0  0  0  0  0  0  0  0  0  0  0
   29.4040   25.0980   13.8500 C   0  0  0  0  0  0  0  0  0  0  0  0
   28.8590   26.4580   13.8480 N   0  0  0  0  0  0  0  0  0  0  0  0
   27.9640   26.8260   12.7500 C   0  0  0  0  0  0  0  0  0  0  0  0
   28.3050   26.0870   11.4520 C   0  0  0  0  0  0  0  0  0  0  0  0
   29.1980   27.4040   14.7960 C   0  0  0  0  0  0  0  0  0  0  0  0
   28.7350   28.5360   14.8060 O   0  0  0  0  0  0  0  0  0  0  0  0
   27.1420   23.8920   10.8750 C   0  0  2  0  0  0  0  0  0  0  0  0
   24.2120   24.0070   13.3570 C   0  0  0  0  0  0  0  0  0  0  0  0
   23.2700   24.7290   12.6260 C   0  0  0  0  0  0  0  0  0  0  0  0
   23.5690   25.1550   11.3310 C   0  0  0  0  0  0  0  0  0  0  0  0
   24.8120   24.8730   10.7640 C   0  0  0  0  0  0  0  0  0  0  0  0
   25.7770   24.1570   11.4870 C   0  0  0  0  0  0  0  0  0  0  0  0
   25.4560   23.7240   12.7850 C   0  0  0  0  0  0  0  0  0  0  0  0
   22.7460   23.1100   14.9950 C   0  0  0  0  0  0  0  0  0  0  0  0
   24.0520   23.5440   14.6350 O   0  0  0  0  0  0  0  0  0  0  0  0
   27.3910   22.3360   10.8130 C   0  0  0  0  0  0  0  0  0  0  0  0
   28.6250   22.0880   10.6030 O   0  0  0  0  0  0  0  0  0  0  0  0
   26.3820   21.5940   10.8520 O   0  0  0  0  0  1  0  0  0  0  0  0
   30.0960   26.9230   15.6890 O   0  0  0  0  0  0  0  0  0  0  0  0
   29.6840   26.5240   17.0240 C   0  0  0  0  0  0  0  0  0  0  0  0
   28.2470   25.9940   17.0290 C   0  0  0  0  0  0  0  0  0  0  0  0
   29.8830   27.6610   18.0310 C   0  0  0  0  0  0  0  0  0  0  0  0
   30.6320   25.3720   17.3930 C   0  0  0  0  0  0  0  0  0  0  0  0
   29.1785   24.2354   11.2266 H   0  0  0  0  0  0  0  0  0  0  0  0
   27.5551   24.0192   13.5698 H   0  0  0  0  0  0  0  0  0  0  0  0
   29.0432   23.1401   13.0345 H   0  0  0  0  0  0  0  0  0  0  0  0
   29.4814   24.7508   14.8909 H   0  0  0  0  0  0  0  0  0  0  0  0
   30.3883   25.1324   13.3600 H   0  0  0  0  0  0  0  0  0  0  0  0
   26.9312   26.5792   13.0371 H   0  0  0  0  0  0  0  0  0  0  0  0
   28.0819   27.9040   12.5655 H   0  0  0  0  0  0  0  0  0  0  0  0
   27.5559   26.3409   10.6875 H   0  0  0  0  0  0  0  0  0  0  0  0
   29.3100   26.3967   11.1294 H   0  0  0  0  0  0  0  0  0  0  0  0
   27.1361   24.3277    9.8650 H   0  0  0  0  0  0  0  0  0  0  0  0
   22.2911   24.9630   13.0698 H   0  0  0  0  0  0  0  0  0  0  0  0
   22.8198   25.7167   10.7538 H   0  0  0  0  0  0  0  0  0  0  0  0
   25.0367   25.2146    9.7428 H   0  0  0  0  0  0  0  0  0  0  0  0
   26.1975   23.1517   13.3617 H   0  0  0  0  0  0  0  0  0  0  0  0
   22.6584   23.0809   16.0911 H   0  0  0  0  0  0  0  0  0  0  0  0
   22.0016   23.8091   14.5861 H   0  0  0  0  0  0  0  0  0  0  0  0
   22.5681   22.1044   14.5861 H   0  0  0  0  0  0  0  0  0  0  0  0
   27.9062   25.8683   18.0673 H   0  0  0  0  0  0  0  0  0  0  0  0
   27.5906   26.7092   16.5117 H   0  0  0  0  0  0  0  0  0  0  0  0
   28.2122   25.0239   16.5117 H   0  0  0  0  0  0  0  0  0  0  0  0
   29.8131   27.2616   19.0535 H   0  0  0  0  0  0  0  0  0  0  0  0
   30.8741   28.1141   17.8813 H   0  0  0  0  0  0  0  0  0  0  0  0
   29.1047   28.4238   17.8813 H   0  0  0  0  0  0  0  0  0  0  0  0
   30.6999   25.2894   18.4878 H   0  0  0  0  0  0  0  0  0  0  0  0
   30.2438   24.4303   16.9777 H   0  0  0  0  0  0  0  0  0  0  0  0
   31.6308   25.5717   16.9777 H   0  0  0  0  0  0  0  0  0  0  0  0
  2  1  1  0
  3  2  1  0
  4  3  1  0
  5  4  1  0
  6  5  1  0
  6  1  1  0
  7  4  1  0
  8  7  2  0
  9  1  1  0
 11 10  2  0
 12 11  1  0
 13 12  2  0
 14 13  1  0
 14  9  1  0
 15 14  2  0
 15 10  1  0
 17 16  1  0
 17 10  1  0
 18  9  1  0
 19 18  2  0
 20 18  1  0
 21  7  1  0
 22 21  1  0
 23 22  1  0
 24 22  1  0
 25 22  1  0
  1 26  1  0
  2 27  1  0
  2 28  1  0
  3 29  1  0
  3 30  1  0
  5 31  1  0
  5 32  1  0
  6 33  1  0
  6 34  1  0
  9 35  1  6
 11 36  1  0
 12 37  1  0
 13 38  1  0
 15 39  1  0
 16 40  1  0
 16 41  1  0
 16 42  1  0
 23 43  1  0
 23 44  1  0
 23 45  1  0
 24 46  1  0
 24 47  1  0
 24 48  1  0
 25 49  1  0
 25 50  1  0
 25 51  1  0
M  CHG  2   1   1  20  -1
M  END
$$$$
=
     RDKit          3D

 21 22  0  0  0  0  0  0  0  0999 V2000
   19.5990   15.7410    5.8280 C   0  0  0  0  0  0  0  0  0  0  0  0
   20.3600   14.7320    6.3130 N   0  0  0  0  0  0  0  0  0  0  0  0
   21.4950   15.3670    6.6220 N   0  0  0  0  0  0  0  0  0  0  0  0
   21.6040   16.6650    6.3630 N   0  0  0  0  0  0  0  0  0  0  0  0
   20.3820   16.9320    5.8490 C   0  0  0  0  0  0  0  0  0  0  0  0
   17.9990   14.7850    4.1140 C   0  0  0  0  0  0  0  0  0  0  0  0
   16.6930   14.6250    3.6440 C   0  0  0  0  0  0  0  0  0  0  0  0
   15.6170   15.1140    4.3810 C   0  0  0  0  0  0  0  0  0  0  0  0
   15.8480   15.7750    5.5850 C   0  0  0  0  0  0  0  0  0  0  0  0
   17.1580   15.9470    6.0430 C   0  0  0  0  0  0  0  0  0  0  0  0
   18.2590   15.4540    5.3170 C   0  0  0  0  0  0  0  0  0  0  0  0
   18.9810   14.2580    3.3210 O   0  0  0  0  0  0  0  0  0  0  0  0
   19.8900   18.3450    5.3120 C   0  0  0  0  0  0  0  0  0  0  0  0
   19.7200   18.4350    4.0510 O   0  0  0  0  0  0  0  0  0  0  0  0
   19.6960   19.2700    6.1590 O   0  0  0  0  0  1  0  0  0  0  0  0
   22.2764   14.8553    7.0562 H   0  0  0  0  0  0  0  0  0  0  0  0
   16.5139   14.1108    2.6882 H   0  0  0  0  0  0  0  0  0  0  0  0
   14.5890   14.9787    4.0137 H   0  0  0  0  0  0  0  0  0  0  0  0
   15.0026   16.1605    6.1738 H   0  0  0  0  0  0  0  0  0  0  0  0
   17.3319   16.4785    6.9902 H   0  0  0  0  0  0  0  0  0  0  0  0
   19.9302   14.3343    3.5918 H   0  0  0  0  0  0  0  0  0  0  0  0
  2  1  2  0
  3  2  1  0
  4  3  1  0
  5  1  1  0
  5  4  2  0
  7  6  2  0
  8  7  1  0
  9  8  2  0
 10  9  1  0
 11  6  1  0
 11 10  2  0
 11  1  1  0
 12  6  1  0
 13  5  1  0
 14 13  2  0
 15 13  1  0
  3 16  1  0
  7 17  1  0
  8 18  1  0
  9 19  1  0
 10 20  1  0
 12 21  1  0
M  CHG  1  15  -1
M  END
$$$$
=
     RDKit          3D

 40 42  0  0  0  0  0  0  0  0999 V2000
   26.0710   25.2420   11.5570 C   0  0  2  0  0  0  0  0  0  0  0  0
   26.9990   26.3230   12.1250 C   0  0  0  0  0  0  0  0  0  0  0  0
   26.9770   26.1190   13.6360 N   0  0  2  0  0  4  0  0  0  0  0  0
   25.7720   25.2370   13.9440 C   0  0  0  0  0  0  0  0  0  0  0  0
   25.0150   25.1040   12.6410 C   0  0  1  0  0  0  0  0  0  0  0  0
   27.4610   20.5130   10.4090 C   0  0  0  0  0  0  0  0  0  0  0  0
   27.4480   21.9130   10.7560 N   0  0  0  0  0  0  0  0  0  0  0  0
   28.6070   22.5810   10.8650 N   0  0  0  0  0  0  0  0  0  0  0  0
   28.2290   23.8350   11.1140 C   0  0  0  0  0  0  0  0  0  0  0  0
   26.8240   23.9700   11.2510 C   0  0  0  0  0  0  0  0  0  0  0  0
   26.3540   22.6930   11.0040 C   0  0  0  0  0  0  0  0  0  0  0  0
   24.0280   26.2500   12.7680 C   0  0  0  0  0  0  0  0  0  0  0  0
   23.5230   26.6230   11.6770 O   0  0  0  0  0  0  0  0  0  0  0  0
   23.7740   26.6130   13.9450 O   0  0  0  0  0  1  0  0  0  0  0  0
   26.9470   27.4150   14.4000 C   0  0  0  0  0  0  0  0  0  0  0  0
   28.3080   27.8090   14.9160 C   0  0  0  0  0  0  0  0  0  0  0  0
   29.2420   26.8260   15.2720 C   0  0  0  0  0  0  0  0  0  0  0  0
   30.4900   27.1890   15.7810 C   0  0  0  0  0  0  0  0  0  0  0  0
   30.8170   28.5340   15.9380 C   0  0  0  0  0  0  0  0  0  0  0  0
   29.8970   29.5200   15.5850 C   0  0  0  0  0  0  0  0  0  0  0  0
   28.6470   29.1620   15.0780 C   0  0  0  0  0  0  0  0  0  0  0  0
   25.6201   25.4941   10.5858 H   0  0  0  0  0  0  0  0  0  0  0  0
   28.0197   26.1987   11.7343 H   0  0  0  0  0  0  0  0  0  0  0  0
   26.6712   27.3344   11.8430 H   0  0  0  0  0  0  0  0  0  0  0  0
   27.8479   25.6631   13.9437 H   0  0  0  0  0  0  0  0  0  0  0  0
   26.1010   24.2490   14.2984 H   0  0  0  0  0  0  0  0  0  0  0  0
   25.1434   25.6720   14.7349 H   0  0  0  0  0  0  0  0  0  0  0  0
   24.4728   24.1751   12.4105 H   0  0  0  0  0  0  0  0  0  0  0  0
   27.4666   19.9076   11.3274 H   0  0  0  0  0  0  0  0  0  0  0  0
   26.5650   20.2735    9.8175 H   0  0  0  0  0  0  0  0  0  0  0  0
   28.3613   20.2902    9.8175 H   0  0  0  0  0  0  0  0  0  0  0  0
   28.9325   24.6759   11.2037 H   0  0  0  0  0  0  0  0  0  0  0  0
   25.3030   22.3682   11.0067 H   0  0  0  0  0  0  0  0  0  0  0  0
   26.5779   28.2092   13.7343 H   0  0  0  0  0  0  0  0  0  0  0  0
   26.2857   27.2776   15.2682 H   0  0  0  0  0  0  0  0  0  0  0  0
   28.9899   25.7623   15.1495 H   0  0  0  0  0  0  0  0  0  0  0  0
   31.2168   26.4114   16.0587 H   0  0  0  0  0  0  0  0  0  0  0  0
   31.8007   28.8178   16.3403 H   0  0  0  0  0  0  0  0  0  0  0  0
   30.1567   30.5820   15.7063 H   0  0  0  0  0  0  0  0  0  0  0  0
   27.9235   29.9439   14.8038 H   0  0  0  0  0  0  0  0  0  0  0  0
  2  1  1  0
  3  2  1  0
  4  3  1  0
  5  4  1  0
  5  1  1  0
  7  6  1  0
  8  7  1  0
  9  8  2  0
 10  1  1  0
 10  9  1  0
 11 10  2  0
 11  7  1  0
 12  5  1  0
 13 12  2  0
 14 12  1  0
 15  3  1  0
 16 15  1  0
 17 16  2  0
 18 17  1  0
 19 18  2  0
 20 19  1  0
 21 20  2  0
 21 16  1  0
  1 22  1  6
  2 23  1  0
  2 24  1  0
  3 25  1  1
  4 26  1  0
  4 27  1  0
  5 28  1  1
  6 29  1  0
  6 30  1  0
  6 31  1  0
  9 32  1  0
 11 33  1  0
 15 34  1  0
 15 35  1  0
 17 36  1  0
 18 37  1  0
 19 38  1  0
 20 39  1  0
 21 40  1  0
M  CHG  2   3   1  14  -1
M  END
$$$$
=
     RDKit          3D

 20 21  0  0  0  0  0  0  0  0999 V2000
   19.3670   15.9110    4.7560 C   0  0  0  0  0  0  0  0  0  0  0  0
   19.8160   14.9150    3.9070 C   0  0  0  0  0  0  0  0  0  0  0  0
   18.7420   14.2590    3.3770 N   0  0  0  0  0  0  0  0  0  0  0  0
   17.5720   14.7960    3.8540 C   0  0  0  0  0  0  0  0  0  0  0  0
   17.9270   15.8320    4.7200 C   0  0  0  0  0  0  0  0  0  0  0  0
   16.8870   16.5520    5.3480 C   0  0  0  0  0  0  0  0  0  0  0  0
   15.5520   16.2180    5.0950 C   0  0  0  0  0  0  0  0  0  0  0  0
   15.2360   15.1780    4.2240 C   0  0  0  0  0  0  0  0  0  0  0  0
   16.2420   14.4460    3.5860 C   0  0  0  0  0  0  0  0  0  0  0  0
   20.1720   16.8610    5.5400 C   0  0  0  0  0  0  0  0  0  0  0  0
   19.9380   18.0730    5.5120 O   0  0  0  0  0  0  0  0  0  0  0  0
   21.1660   15.4440    7.2440 O   0  0  0  0  0  1  0  0  0  0  0  0
   21.3610   16.4260    6.4510 C   0  0  0  0  0  0  0  0  0  0  0  0
   22.4580   17.0730    6.3530 O   0  0  0  0  0  0  0  0  0  0  0  0
   20.8708   14.6877    3.6929 H   0  0  0  0  0  0  0  0  0  0  0  0
   18.8013   13.4732    2.7138 H   0  0  0  0  0  0  0  0  0  0  0  0
   17.1266   17.3758    6.0364 H   0  0  0  0  0  0  0  0  0  0  0  0
   14.7458   16.7811    5.5878 H   0  0  0  0  0  0  0  0  0  0  0  0
   14.1812   14.9293    4.0356 H   0  0  0  0  0  0  0  0  0  0  0  0
   15.9977   13.6237    2.8974 H   0  0  0  0  0  0  0  0  0  0  0  0
  2  1  2  0
  3  2  1  0
  4  3  1  0
  5  4  2  0
  5  1  1  0
  6  5  1  0
  7  6  2  0
  8  7  1  0
  9  8  2  0
  9  4  1  0
 10  1  1  0
 11 10  2  0
 13 12  1  0
 13 10  1  0
 14 13  2  0
  2 15  1  0
  3 16  1  0
  6 17  1  0
  7 18  1  0
  8 19  1  0
  9 20  1  0
M  CHG  1  12  -1
M  END
$$$$
=
     RDKit          3D

 23 23  0  0  0  0  0  0  0  0999 V2000
   14.8790   15.0990    3.9100 C   0  0  1  0  0  0  0  0  0  0  0  0
   15.2820   15.9570    5.1150 C   0  0  0  0  0  0  0  0  0  0  0  0
   16.7610   15.6710    5.3340 C   0  0  0  0  0  0  0  0  0  0  0  0
   17.2710   15.4890    3.9160 C   0  0  2  0  0  0  0  0  0  0  0  0
   16.1950   14.6260    3.2700 C   0  0  0  0  0  0  0  0  0  0  0  0
   18.9110   14.8060    3.7990 S   0  0  0  0  0  6  0  0  0  0  0  0
   18.8650   13.4590    3.2660 O   0  0  0  0  0  0  0  0  0  0  0  0
   19.7770   15.8090    3.2030 O   0  0  0  0  0  0  0  0  0  0  0  0
   19.4150   14.6660    5.4970 C   0  0  0  0  0  0  0  0  0  0  0  0
   14.5080   12.7750    3.7990 O   0  0  0  0  0  1  0  0  0  0  0  0
   14.0230   13.8630    4.2210 C   0  0  0  0  0  0  0  0  0  0  0  0
   12.9510   14.0760    4.8490 O   0  0  0  0  0  0  0  0  0  0  0  0
   14.2452   15.7237    3.2634 H   0  0  0  0  0  0  0  0  0  0  0  0
   15.1236   17.0238    4.8988 H   0  0  0  0  0  0  0  0  0  0  0  0
   14.6819   15.7207    6.0061 H   0  0  0  0  0  0  0  0  0  0  0  0
   17.2603   16.5157    5.8312 H   0  0  0  0  0  0  0  0  0  0  0  0
   16.9495   14.8036    5.9837 H   0  0  0  0  0  0  0  0  0  0  0  0
   17.4115   16.4509    3.4012 H   0  0  0  0  0  0  0  0  0  0  0  0
   16.3704   13.5616    3.4851 H   0  0  0  0  0  0  0  0  0  0  0  0
   16.1842   14.7249    2.1745 H   0  0  0  0  0  0  0  0  0  0  0  0
   18.5640   14.9024    6.1527 H   0  0  0  0  0  0  0  0  0  0  0  0
   19.7561   13.6391    5.6948 H   0  0  0  0  0  0  0  0  0  0  0  0
   20.2369   15.3699    5.6948 H   0  0  0  0  0  0  0  0  0  0  0  0
  2  1  1  0
  3  2  1  0
  4  3  1  0
  5  1  1  0
  5  4  1  0
  6  4  1  0
  7  6  2  0
  8  6  2  0
  9  6  1  0
 11 10  1  0
 11  1  1  0
 12 11  2  0
  1 13  1  6
  2 14  1  0
  2 15  1  0
  3 16  1  0
  3 17  1  0
  4 18  1  6
  5 19  1  0
  5 20  1  0
  9 21  1  0
  9 22  1  0
  9 23  1  0
M  CHG  1  10  -1
M  END
$$$$
=
     RDKit          3D

 41 43  0  0  0  0  0  0  0  0999 V2000
   18.1710   17.2740    4.3140 C   0  0  0  0  0  0  0  0  0  0  0  0
   17.9690   15.8810    4.8610 N   0  0  1  0  0  4  0  0  0  0  0  0
   17.0410   15.7860    6.0320 C   0  0  0  0  0  0  0  0  0  0  0  0
   15.5800   15.7400    5.6030 C   0  0  0  0  0  0  0  0  0  0  0  0
   15.3360   14.6840    4.5570 C   0  0  0  0  0  0  0  0  0  0  0  0
   16.3750   14.2690    3.7040 C   0  0  0  0  0  0  0  0  0  0  0  0
   17.7750   14.8120    3.8310 C   0  0  0  0  0  0  0  0  0  0  0  0
   16.1060   13.3040    2.7180 C   0  0  0  0  0  0  0  0  0  0  0  0
   14.8240   12.7740    2.5740 C   0  0  0  0  0  0  0  0  0  0  0  0
   13.7960   13.2020    3.4080 C   0  0  0  0  0  0  0  0  0  0  0  0
   14.0480   14.1560    4.3930 C   0  0  0  0  0  0  0  0  0  0  0  0
   20.5150   17.8810    3.6630 N   0  0  0  0  0  0  0  0  0  0  0  0
   21.2540   18.0090    2.5490 N   0  0  0  0  0  0  0  0  0  0  0  0
   20.4320   17.7360    1.5460 N   0  0  0  0  0  0  0  0  0  0  0  0
   19.1750   17.4370    2.0070 N   0  0  0  0  0  0  0  0  0  0  0  0
   19.2280   17.5450    3.3180 C   0  0  0  0  0  0  0  0  0  0  0  0
   21.0870   18.1570    4.9680 C   0  0  0  0  0  0  0  0  0  0  0  0
   22.1040   17.1030    5.4360 C   0  0  0  0  0  0  0  0  0  0  0  0
   21.6230   15.6620    5.2290 C   0  0  0  0  0  0  0  0  0  0  0  0
   20.0290   14.2730    6.2760 O   0  0  0  0  0  1  0  0  0  0  0  0
   20.8270   15.2340    6.4510 C   0  0  0  0  0  0  0  0  0  0  0  0
   21.1900   15.7320    7.5540 O   0  0  0  0  0  0  0  0  0  0  0  0
   17.2186   17.5713    3.8509 H   0  0  0  0  0  0  0  0  0  0  0  0
   18.5125   17.8373    5.1949 H   0  0  0  0  0  0  0  0  0  0  0  0
   18.8921   15.6637    5.2629 H   0  0  0  0  0  0  0  0  0  0  0  0
   17.2741   14.8708    6.5960 H   0  0  0  0  0  0  0  0  0  0  0  0
   17.1841   16.6837    6.6514 H   0  0  0  0  0  0  0  0  0  0  0  0
   14.9575   15.5199    6.4828 H   0  0  0  0  0  0  0  0  0  0  0  0
   15.3207   16.7169    5.1689 H   0  0  0  0  0  0  0  0  0  0  0  0
   18.4402   13.9737    4.0854 H   0  0  0  0  0  0  0  0  0  0  0  0
   18.0005   15.2850    2.8638 H   0  0  0  0  0  0  0  0  0  0  0  0
   16.9141   12.9637    2.0538 H   0  0  0  0  0  0  0  0  0  0  0  0
   14.6256   12.0173    1.8007 H   0  0  0  0  0  0  0  0  0  0  0  0
   12.7839   12.7875    3.2902 H   0  0  0  0  0  0  0  0  0  0  0  0
   13.2307   14.4965    5.0457 H   0  0  0  0  0  0  0  0  0  0  0  0
   21.5935   19.1325    4.9252 H   0  0  0  0  0  0  0  0  0  0  0  0
   20.2575   18.1443    5.6903 H   0  0  0  0  0  0  0  0  0  0  0  0
   23.0376   17.2439    4.8716 H   0  0  0  0  0  0  0  0  0  0  0  0
   22.2475   17.2464    6.5171 H   0  0  0  0  0  0  0  0  0  0  0  0
   20.9849   15.6096    4.3345 H   0  0  0  0  0  0  0  0  0  0  0  0
   22.4865   14.9946    5.0914 H   0  0  0  0  0  0  0  0  0  0  0  0
  2  1  1  0
  3  2  1  0
  4  3  1  0
  5  4  1  0
  6  5  2  0
  7  6  1  0
  7  2  1  0
  8  6  1  0
  9  8  2  0
 10  9  1  0
 11 10  2  0
 11  5  1  0
 13 12  1  0
 14 13  2  0
 15 14  1  0
 16 15  2  0
 16 12  1  0
 16  1  1  0
 17 12  1  0
 18 17  1  0
 19 18  1  0
 21 19  1  0
 21 20  1  0
 22 21  2  0
  1 23  1  0
  1 24  1  0
  2 25  1  1
  3 26  1  0
  3 27  1  0
  4 28  1  0
  4 29  1  0
  7 30  1  0
  7 31  1  0
  8 32  1  0
  9 33  1  0
 10 34  1  0
 11 35  1  0
 17 36  1  0
 17 37  1  0
 18 38  1  0
 18 39  1  0
 19 40  1  0
 19 41  1  0
M  CHG  2   2   1  20  -1
M  END
$$$$
=
     RDKit          3D

 22 22  0  0  0  0  0  0  0  0999 V2000
   18.7350   14.8750    4.0770 N   0  0  0  0  0  0  0  0  0  0  0  0
   17.7580   15.6780    4.5460 N   0  0  0  0  0  0  0  0  0  0  0  0
   16.6090   15.0340    4.2400 C   0  0  0  0  0  0  0  0  0  0  0  0
   16.8840   13.8240    3.5540 C   0  0  0  0  0  0  0  0  0  0  0  0
   18.2590   13.7550    3.4580 C   0  0  0  0  0  0  0  0  0  0  0  0
   15.2580   15.5830    4.5970 C   0  0  0  0  0  0  0  0  0  0  0  0
   15.3250   16.8890    4.9730 F   0  0  0  0  0  0  0  0  0  0  0  0
   14.3860   15.5110    3.5570 F   0  0  0  0  0  0  0  0  0  0  0  0
   14.6640   14.9270    5.6330 F   0  0  0  0  0  0  0  0  0  0  0  0
   15.9620   12.8520    3.0470 N   0  0  0  0  0  4  0  0  0  0  0  0
   15.0380   12.5040    3.7910 O   0  0  0  0  0  0  0  0  0  0  0  0
   16.1620   12.4290    1.9040 O   0  0  0  0  0  1  0  0  0  0  0  0
   20.1360   15.2420    4.2260 C   0  0  0  0  0  0  0  0  0  0  0  0
   20.3160   16.3600    5.2350 C   0  0  0  0  0  0  0  0  0  0  0  0
   22.2070   16.6500    6.5780 O   0  0  0  0  0  1  0  0  0  0  0  0
   21.2000   15.9130    6.3880 C   0  0  0  0  0  0  0  0  0  0  0  0
   20.8240   14.8900    7.0200 O   0  0  0  0  0  0  0  0  0  0  0  0
   18.8506   12.9601    2.9804 H   0  0  0  0  0  0  0  0  0  0  0  0
   20.7017   14.3613    4.5643 H   0  0  0  0  0  0  0  0  0  0  0  0
   20.5046   15.5952    3.2517 H   0  0  0  0  0  0  0  0  0  0  0  0
   20.7825   17.2228    4.7371 H   0  0  0  0  0  0  0  0  0  0  0  0
   19.3288   16.6347    5.6350 H   0  0  0  0  0  0  0  0  0  0  0  0
  2  1  1  0
  3  2  2  0
  4  3  1  0
  5  4  2  0
  5  1  1  0
  6  3  1  0
  7  6  1  0
  8  6  1  0
  9  6  1  0
 10  4  1  0
 11 10  2  0
 12 10  1  0
 13  1  1  0
 14 13  1  0
 16 14  1  0
 16 15  1  0
 17 16  2  0
  5 18  1  0
 13 19  1  0
 13 20  1  0
 14 21  1  0
 14 22  1  0
M  CHG  3  10   1  12  -1  15  -1
M  END
$$$$
=
     RDKit          3D

 39 41  0  0  0  0  0  0  0  0999 V2000
   17.4040   15.8480    4.3070 N   0  0  0  0  0  0  0  0  0  0  0  0
   16.7590   16.6650    5.1900 C   0  0  0  0  0  0  0  0  0  0  0  0
   15.5220   16.2830    5.4100 N   0  0  0  0  0  0  0  0  0  0  0  0
   15.3410   15.1740    4.6160 C   0  0  0  0  0  0  0  0  0  0  0  0
   16.5030   14.8810    3.9060 C   0  0  0  0  0  0  0  0  0  0  0  0
   16.5820   13.8080    3.0100 C   0  0  0  0  0  0  0  0  0  0  0  0
   15.4370   13.0160    2.8570 C   0  0  0  0  0  0  0  0  0  0  0  0
   14.2460   13.2740    3.5590 C   0  0  0  0  0  0  0  0  0  0  0  0
   14.2050   14.3680    4.4490 C   0  0  0  0  0  0  0  0  0  0  0  0
   20.5380   18.9530    5.6970 C   0  0  0  0  0  0  0  0  0  0  0  0
   19.9450   17.5610    5.4630 C   0  0  2  0  0  0  0  0  0  0  0  0
   20.9820   16.4800    5.7920 C   0  0  0  0  0  0  0  0  0  0  0  0
   20.4020   15.0780    5.6550 C   0  0  0  0  0  0  0  0  0  0  0  0
   19.7250   14.8380    4.3090 C   0  0  0  0  0  0  0  0  0  0  0  0
   18.7820   15.9600    3.8290 C   0  0  2  0  0  0  0  0  0  0  0  0
   19.3570   17.3870    4.0410 C   0  0  2  0  0  0  0  0  0  0  0  0
   20.3660   17.7100    2.9260 C   0  0  0  0  0  0  0  0  0  0  0  0
   13.0300   12.3900    3.3620 C   0  0  0  0  0  0  0  0  0  0  0  0
   12.9550   11.3430    4.0800 O   0  0  0  0  0  0  0  0  0  0  0  0
   12.1750   12.7590    2.4960 O   0  0  0  0  0  1  0  0  0  0  0  0
   17.2225   17.5432    5.6633 H   0  0  0  0  0  0  0  0  0  0  0  0
   17.5046   13.5959    2.4498 H   0  0  0  0  0  0  0  0  0  0  0  0
   15.4705   12.1626    2.1637 H   0  0  0  0  0  0  0  0  0  0  0  0
   13.2850   14.5883    5.0103 H   0  0  0  0  0  0  0  0  0  0  0  0
   20.6179   19.1405    6.7779 H   0  0  0  0  0  0  0  0  0  0  0  0
   21.5374   19.0073    5.2406 H   0  0  0  0  0  0  0  0  0  0  0  0
   19.8848   19.7113    5.2406 H   0  0  0  0  0  0  0  0  0  0  0  0
   19.0931   17.4464    6.1494 H   0  0  0  0  0  0  0  0  0  0  0  0
   21.8332   16.5819    5.1028 H   0  0  0  0  0  0  0  0  0  0  0  0
   21.2994   16.6178    6.8362 H   0  0  0  0  0  0  0  0  0  0  0  0
   21.2176   14.3491    5.7713 H   0  0  0  0  0  0  0  0  0  0  0  0
   19.6330   14.9643    6.4333 H   0  0  0  0  0  0  0  0  0  0  0  0
   20.5126   14.7106    3.5518 H   0  0  0  0  0  0  0  0  0  0  0  0
   19.0913   13.9492    4.4447 H   0  0  0  0  0  0  0  0  0  0  0  0
   18.7263   15.7990    2.7423 H   0  0  0  0  0  0  0  0  0  0  0  0
   18.5395   18.1197    3.9712 H   0  0  0  0  0  0  0  0  0  0  0  0
   21.3226   18.0162    3.3746 H   0  0  0  0  0  0  0  0  0  0  0  0
   20.5224   16.8170    2.3030 H   0  0  0  0  0  0  0  0  0  0  0  0
   19.9747   18.5278    2.3030 H   0  0  0  0  0  0  0  0  0  0  0  0
  2  1  1  0
  3  2  2  0
  4  3  1  0
  5  4  2  0
  5  1  1  0
  6  5  1  0
  7  6  2  0
  8  7  1  0
  9  8  2  0
  9  4  1  0
 11 10  1  0
 12 11  1  0
 13 12  1  0
 14 13  1  0
 15 14  1  0
 15  1  1  0
 16 15  1  0
 16 11  1  0
 17 16  1  0
 18  8  1  0
 19 18  2  0
 20 18  1  0
  2 21  1  0
  6 22  1  0
  7 23  1  0
  9 24  1  0
 10 25  1  0
 10 26  1  0
 10 27  1  0
 11 28  1  1
 12 29  1  0
 12 30  1  0
 13 31  1  0
 13 32  1  0
 14 33  1  0
 14 34  1  0
 15 35  1  6
 16 36  1  1
 17 37  1  0
 17 38  1  0
 17 39  1  0
M  CHG  1  20  -1
M  END
$$$$
=
     RDKit          3D

 47 49  0  0  0  0  0  0  0  0999 V2000
   27.2830   25.0460   13.0880 C   0  0  2  0  0  0  0  0  0  0  0  0
   28.2880   24.1580   12.3000 C   0  0  0  0  0  0  0  0  0  0  0  0
   27.7310   23.5980   10.9860 C   0  0  0  0  0  0  0  0  0  0  0  0
   26.2990   23.1070   11.1060 C   0  0  0  0  0  0  0  0  0  0  0  0
   25.4040   24.1770   11.6430 N   0  0  1  0  0  4  0  0  0  0  0  0
   26.1030   25.4130   12.1680 C   0  0  0  0  0  0  0  0  0  0  0  0
   29.2210   28.6030   14.7720 C   0  0  0  0  0  0  0  0  0  0  0  0
   28.0220   28.7040   14.0760 C   0  0  0  0  0  0  0  0  0  0  0  0
   27.4210   27.5570   13.5400 C   0  0  0  0  0  0  0  0  0  0  0  0
   27.9970   26.2790   13.6760 C   0  0  0  0  0  0  0  0  0  0  0  0
   29.2070   26.2010   14.3830 C   0  0  0  0  0  0  0  0  0  0  0  0
   29.8060   27.3480   14.9220 C   0  0  0  0  0  0  0  0  0  0  0  0
   30.8510   29.2840   16.3550 C   0  0  0  0  0  0  0  0  0  0  0  0
   29.9130   29.6330   15.3450 O   0  0  0  0  0  0  0  0  0  0  0  0
   26.6670   24.1700   14.2370 C   0  0  0  0  0  0  0  0  0  0  0  0
   25.5740   24.5460   14.7310 O   0  0  0  0  0  0  0  0  0  0  0  0
   27.4310   23.2360   14.6520 O   0  0  0  0  0  1  0  0  0  0  0  0
   24.1150   24.4110   10.9360 C   0  0  0  0  0  0  0  0  0  0  0  0
   23.1090   25.2410   11.6930 C   0  0  0  0  0  0  0  0  0  0  0  0
   22.4740   24.7230   12.8330 C   0  0  0  0  0  0  0  0  0  0  0  0
   21.5580   25.4920   13.5510 C   0  0  0  0  0  0  0  0  0  0  0  0
   21.2620   26.7890   13.1360 C   0  0  0  0  0  0  0  0  0  0  0  0
   21.8770   27.3140   12.0030 C   0  0  0  0  0  0  0  0  0  0  0  0
   22.7940   26.5460   11.2830 C   0  0  0  0  0  0  0  0  0  0  0  0
   29.1764   24.7638   12.0684 H   0  0  0  0  0  0  0  0  0  0  0  0
   28.5184   23.2941   12.9408 H   0  0  0  0  0  0  0  0  0  0  0  0
   27.7663   24.3913   10.2248 H   0  0  0  0  0  0  0  0  0  0  0  0
   28.3517   22.7330   10.7094 H   0  0  0  0  0  0  0  0  0  0  0  0
   25.9392   22.8037   10.1117 H   0  0  0  0  0  0  0  0  0  0  0  0
   26.2799   22.2552   11.8018 H   0  0  0  0  0  0  0  0  0  0  0  0
   25.0612   23.7229   12.5016 H   0  0  0  0  0  0  0  0  0  0  0  0
   26.4817   25.9982   11.3170 H   0  0  0  0  0  0  0  0  0  0  0  0
   25.3778   25.9975   12.7531 H   0  0  0  0  0  0  0  0  0  0  0  0
   27.5440   29.6861   13.9457 H   0  0  0  0  0  0  0  0  0  0  0  0
   26.4701   27.6580   12.9963 H   0  0  0  0  0  0  0  0  0  0  0  0
   29.6934   25.2234   14.5163 H   0  0  0  0  0  0  0  0  0  0  0  0
   30.7538   27.2553   15.4726 H   0  0  0  0  0  0  0  0  0  0  0  0
   30.4025   29.4509   17.3454 H   0  0  0  0  0  0  0  0  0  0  0  0
   31.1249   28.2238   16.2505 H   0  0  0  0  0  0  0  0  0  0  0  0
   31.7513   29.9073   16.2505 H   0  0  0  0  0  0  0  0  0  0  0  0
   24.3350   24.9239    9.9881 H   0  0  0  0  0  0  0  0  0  0  0  0
   23.6554   23.4205   10.8032 H   0  0  0  0  0  0  0  0  0  0  0  0
   22.7014   23.6989   13.1638 H   0  0  0  0  0  0  0  0  0  0  0  0
   21.0697   25.0749   14.4441 H   0  0  0  0  0  0  0  0  0  0  0  0
   20.5427   27.3976   13.7035 H   0  0  0  0  0  0  0  0  0  0  0  0
   21.6399   28.3366   11.6741 H   0  0  0  0  0  0  0  0  0  0  0  0
   23.2736   26.9670   10.3870 H   0  0  0  0  0  0  0  0  0  0  0  0
  2  1  1  0
  3  2  1  0
  4  3  1  0
  5  4  1  0
  6  5  1  0
  6  1  1  0
  8  7  2  0
  9  8  1  0
 10  1  1  0
 10  9  2  0
 11 10  1  0
 12 11  2  0
 12  7  1  0
 14  7  1  0
 14 13  1  0
  1 15  1  1
 16 15  2  0
 17 15  1  0
 18  5  1  0
 19 18  1  0
 20 19  2  0
 21 20  1  0
 22 21  2  0
 23 22  1  0
 24 19  1  0
 24 23  2  0
  2 25  1  0
  2 26  1  0
  3 27  1  0
  3 28  1  0
  4 29  1  0
  4 30  1  0
  5 31  1  1
  6 32  1  0
  6 33  1  0
  8 34  1  0
  9 35  1  0
 11 36  1  0
 12 37  1  0
 13 38  1  0
 13 39  1  0
 13 40  1  0
 18 41  1  0
 18 42  1  0
 20 43  1  0
 21 44  1  0
 22 45  1  0
 23 46  1  0
 24 47  1  0
M  CHG  2   5   1  17  -1
M  END
$$$$
=
     RDKit          3D

 44 45  0  0  0  0  0  0  0  0999 V2000
   26.8570   24.2820   13.2350 N   0  0  0  0  0  4  0  0  0  0  0  0
   27.7020   25.0440   12.2430 C   0  0  0  0  0  0  0  0  0  0  0  0
   28.6340   25.9910   13.0150 C   0  0  0  0  0  0  0  0  0  0  0  0
   29.2500   25.3600   14.1870 N   0  0  0  0  0  0  0  0  0  0  0  0
   29.0960   23.9160   14.3370 C   0  0  0  0  0  0  0  0  0  0  0  0
   27.6360   23.4440   14.2040 C   0  0  0  0  0  0  0  0  0  0  0  0
   30.0940   26.0540   15.0330 C   0  0  0  0  0  0  0  0  0  0  0  0
   30.6820   25.5300   15.9690 O   0  0  0  0  0  0  0  0  0  0  0  0
   25.6090   23.6410   12.5680 C   0  0  1  0  0  0  0  0  0  0  0  0
   24.4150   24.5690   12.5660 C   0  0  0  0  0  0  0  0  0  0  0  0
   23.0890   24.1770   12.4610 C   0  0  0  0  0  0  0  0  0  0  0  0
   22.0020   25.4960   12.4430 S   0  0  0  0  0  0  0  0  0  0  0  0
   23.2770   26.6190   12.6150 C   0  0  0  0  0  0  0  0  0  0  0  0
   24.5060   26.0000   12.6670 C   0  0  0  0  0  0  0  0  0  0  0  0
   26.5420   22.1250   11.0270 O   0  0  0  0  0  1  0  0  0  0  0  0
   25.9490   23.2550   11.0750 C   0  0  0  0  0  0  0  0  0  0  0  0
   25.5050   24.0060   10.1740 O   0  0  0  0  0  0  0  0  0  0  0  0
   30.1820   27.3620   14.6890 O   0  0  0  0  0  0  0  0  0  0  0  0
   29.6940   28.4040   15.5750 C   0  0  0  0  0  0  0  0  0  0  0  0
   28.7820   27.8280   16.6640 C   0  0  0  0  0  0  0  0  0  0  0  0
   28.8590   29.3230   14.6710 C   0  0  0  0  0  0  0  0  0  0  0  0
   30.8510   29.2190   16.1660 C   0  0  0  0  0  0  0  0  0  0  0  0
   26.4500   24.9703   13.8842 H   0  0  0  0  0  0  0  0  0  0  0  0
   28.3010   24.3387   11.6481 H   0  0  0  0  0  0  0  0  0  0  0  0
   27.0558   25.6229   11.5667 H   0  0  0  0  0  0  0  0  0  0  0  0
   29.4328   26.3262   12.3371 H   0  0  0  0  0  0  0  0  0  0  0  0
   28.0229   26.8310   13.3769 H   0  0  0  0  0  0  0  0  0  0  0  0
   29.6963   23.4180   13.5614 H   0  0  0  0  0  0  0  0  0  0  0  0
   29.4325   23.6552   15.3513 H   0  0  0  0  0  0  0  0  0  0  0  0
   27.1534   23.5022   15.1908 H   0  0  0  0  0  0  0  0  0  0  0  0
   27.6476   22.4114   13.8249 H   0  0  0  0  0  0  0  0  0  0  0  0
   25.3479   22.7499   13.1577 H   0  0  0  0  0  0  0  0  0  0  0  0
   22.7698   23.1263   12.3960 H   0  0  0  0  0  0  0  0  0  0  0  0
   23.1335   27.7078   12.6769 H   0  0  0  0  0  0  0  0  0  0  0  0
   25.4566   26.5430   12.7744 H   0  0  0  0  0  0  0  0  0  0  0  0
   29.1868   28.0837   17.6543 H   0  0  0  0  0  0  0  0  0  0  0  0
   27.7727   28.2529   16.5596 H   0  0  0  0  0  0  0  0  0  0  0  0
   28.7320   26.7341   16.5596 H   0  0  0  0  0  0  0  0  0  0  0  0
   28.2492   29.9942   15.2936 H   0  0  0  0  0  0  0  0  0  0  0  0
   29.5296   29.9205   14.0360 H   0  0  0  0  0  0  0  0  0  0  0  0
   28.2002   28.7125   14.0360 H   0  0  0  0  0  0  0  0  0  0  0  0
   30.8009   29.1837   17.2643 H   0  0  0  0  0  0  0  0  0  0  0  0
   31.8082   28.7947   15.8288 H   0  0  0  0  0  0  0  0  0  0  0  0
   30.7738   30.2632   15.8288 H   0  0  0  0  0  0  0  0  0  0  0  0
  2  1  1  0
  3  2  1  0
  4  3  1  0
  5  4  1  0
  6  1  1  0
  6  5  1  0
  7  4  1  0
  8  7  2  0
  9  1  1  0
 10  9  1  0
 11 10  2  0
 12 11  1  0
 13 12  1  0
 14 13  2  0
 14 10  1  0
 16 15  1  0
 16  9  1  0
 17 16  2  0
 18  7  1  0
 19 18  1  0
 20 19  1  0
 21 19  1  0
 22 19  1  0
  1 23  1  0
  2 24  1  0
  2 25  1  0
  3 26  1  0
  3 27  1  0
  5 28  1  0
  5 29  1  0
  6 30  1  0
  6 31  1  0
  9 32  1  1
 11 33  1  0
 13 34  1  0
 14 35  1  0
 20 36  1  0
 20 37  1  0
 20 38  1  0
 21 39  1  0
 21 40  1  0
 21 41  1  0
 22 42  1  0
 22 43  1  0
 22 44  1  0
M  CHG  2   1   1  15  -1
M  END
$$$$
=
     RDKit          3D

 31 32  0  0  0  0  0  0  0  0999 V2000
   18.7000   15.4150    3.9870 C   0  0  0  0  0  0  0  0  0  0  0  0
   19.8510   15.1400    3.6270 O   0  0  0  0  0  0  0  0  0  0  0  0
   17.6630   14.5410    3.7060 N   0  0  0  0  0  0  0  0  0  0  0  0
   17.9790   13.2670    3.0530 C   0  0  0  0  0  0  0  0  0  0  0  0
   16.6940   12.4440    2.9840 C   0  0  0  0  0  0  0  0  0  0  0  0
   15.6720   13.4350    3.4380 C   0  0  0  0  0  0  0  0  0  0  0  0
   16.2670   14.6250    3.8760 C   0  0  0  0  0  0  0  0  0  0  0  0
   15.4670   15.6450    4.3620 C   0  0  0  0  0  0  0  0  0  0  0  0
   14.0780   15.4590    4.4090 C   0  0  0  0  0  0  0  0  0  0  0  0
   13.4960   14.2640    3.9690 C   0  0  0  0  0  0  0  0  0  0  0  0
   14.2970   13.2370    3.4790 C   0  0  0  0  0  0  0  0  0  0  0  0
   18.3920   16.7170    4.7050 C   0  0  0  0  0  0  0  0  0  0  0  0
   19.3870   17.8470    4.4150 C   0  0  0  0  0  0  0  0  0  0  0  0
   20.3130   18.1400    5.5960 C   0  0  0  0  0  0  0  0  0  0  0  0
   22.3850   17.5350    4.6510 O   0  0  0  0  0  1  0  0  0  0  0  0
   21.6250   17.3450    5.6430 C   0  0  0  0  0  0  0  0  0  0  0  0
   21.7970   16.6020    6.6490 O   0  0  0  0  0  0  0  0  0  0  0  0
   18.3596   13.4517    2.0376 H   0  0  0  0  0  0  0  0  0  0  0  0
   18.7506   12.7262    3.6206 H   0  0  0  0  0  0  0  0  0  0  0  0
   16.4921   12.1017    1.9583 H   0  0  0  0  0  0  0  0  0  0  0  0
   16.7211   11.5241    3.5865 H   0  0  0  0  0  0  0  0  0  0  0  0
   15.9150   16.5887    4.7067 H   0  0  0  0  0  0  0  0  0  0  0  0
   13.4362   16.2636    4.7972 H   0  0  0  0  0  0  0  0  0  0  0  0
   12.4042   14.1368    4.0107 H   0  0  0  0  0  0  0  0  0  0  0  0
   13.8530   12.2920    3.1328 H   0  0  0  0  0  0  0  0  0  0  0  0
   17.3906   17.0520    4.3969 H   0  0  0  0  0  0  0  0  0  0  0  0
   18.4590   16.5065    5.7826 H   0  0  0  0  0  0  0  0  0  0  0  0
   20.0019   17.5600    3.5492 H   0  0  0  0  0  0  0  0  0  0  0  0
   18.8039   18.7586    4.2177 H   0  0  0  0  0  0  0  0  0  0  0  0
   20.5696   19.2092    5.5638 H   0  0  0  0  0  0  0  0  0  0  0  0
   19.7523   17.8351    6.4919 H   0  0  0  0  0  0  0  0  0  0  0  0
  2  1  2  0
  3  1  1  0
  4  3  1  0
  5  4  1  0
  6  5  1  0
  7  6  2  0
  7  3  1  0
  8  7  1  0
  9  8  2  0
 10  9  1  0
 11 10  2  0
 11  6  1  0
 12  1  1  0
 13 12  1  0
 14 13  1  0
 16 14  1  0
 16 15  1  0
 17 16  2  0
  4 18  1  0
  4 19  1  0
  5 20  1  0
  5 21  1  0
  8 22  1  0
  9 23  1  0
 10 24  1  0
 11 25  1  0
 12 26  1  0
 12 27  1  0
 13 28  1  0
 13 29  1  0
 14 30  1  0
 14 31  1  0
M  CHG  1  15  -1
M  END
$$$$
=
     RDKit          3D

 21 21  0  0  0  0  0  0  0  0999 V2000
   17.7690   15.7850    4.2540 C   0  0  0  0  0  0  0  0  0  0  0  0
   16.8470   16.4050    5.0950 C   0  0  0  0  0  0  0  0  0  0  0  0
   15.5560   15.8860    5.1890 C   0  0  0  0  0  0  0  0  0  0  0  0
   15.2080   14.7500    4.4580 C   0  0  0  0  0  0  0  0  0  0  0  0
   16.1320   14.1020    3.6230 C   0  0  0  0  0  0  0  0  0  0  0  0
   17.4260   14.6380    3.5350 C   0  0  0  0  0  0  0  0  0  0  0  0
   15.7600   12.8660    2.8440 C   0  0  0  0  0  0  0  0  0  0  0  0
   14.5460   12.7190    2.5010 O   0  0  0  0  0  0  0  0  0  0  0  0
   16.7190   12.0620    2.5920 O   0  0  0  0  0  1  0  0  0  0  0  0
   13.9230   14.2910    4.6040 O   0  0  0  0  0  0  0  0  0  0  0  0
   19.1080   16.2060    4.1410 O   0  0  0  0  0  0  0  0  0  0  0  0
   19.4720   17.4540    2.1900 C   0  0  0  0  0  0  0  0  0  0  0  0
   19.4170   17.4850    3.6900 C   0  0  0  0  0  0  0  0  0  0  0  0
   19.6170   18.4890    4.3600 O   0  0  0  0  0  0  0  0  0  0  0  0
   17.1339   17.2929    5.6776 H   0  0  0  0  0  0  0  0  0  0  0  0
   14.8131   16.3718    5.8387 H   0  0  0  0  0  0  0  0  0  0  0  0
   18.1760   14.1508    2.8946 H   0  0  0  0  0  0  0  0  0  0  0  0
   13.6248   13.4881    4.1075 H   0  0  0  0  0  0  0  0  0  0  0  0
   20.3881   16.9377    1.8673 H   0  0  0  0  0  0  0  0  0  0  0  0
   18.5931   16.9184    1.8018 H   0  0  0  0  0  0  0  0  0  0  0  0
   19.4751   18.4832    1.8018 H   0  0  0  0  0  0  0  0  0  0  0  0
  2  1  2  0
  3  2  1  0
  4  3  2  0
  5  4  1  0
  6  5  2  0
  6  1  1  0
  7  5  1  0
  8  7  2  0
  9  7  1  0
 10  4  1  0
 11  1  1  0
 13 11  1  0
 13 12  1  0
 14 13  2  0
  2 15  1  0
  3 16  1  0
  6 17  1  0
 10 18  1  0
 12 19  1  0
 12 20  1  0
 12 21  1  0
M  CHG  1   9  -1
M  END
$$$$
=
     RDKit          3D

 32 33  0  0  0  0  0  0  0  0999 V2000
   13.7740   14.6200    4.0680 C   0  0  0  0  0  0  0  0  0  0  0  0
   13.3940   13.4130    3.6080 C   0  0  0  0  0  0  0  0  0  0  0  0
   17.6950   15.8740    5.2690 C   0  0  0  0  0  0  0  0  0  0  0  0
   17.4310   15.5810    3.9290 C   0  0  0  0  0  0  0  0  0  0  0  0
   16.1620   15.1560    3.5230 C   0  0  0  0  0  0  0  0  0  0  0  0
   15.1350   15.0110    4.4580 C   0  0  0  0  0  0  0  0  0  0  0  0
   15.3970   15.3130    5.7980 C   0  0  0  0  0  0  0  0  0  0  0  0
   16.6700   15.7370    6.2040 C   0  0  0  0  0  0  0  0  0  0  0  0
   18.9770   16.2780    5.5220 O   0  0  0  0  0  0  0  0  0  0  0  0
   20.5860   14.8550    6.6570 C   0  0  0  0  0  0  0  0  0  0  0  0
   20.0410   15.3490    5.3290 C   0  0  0  0  0  0  0  0  0  0  0  0
   12.0420   13.1190    3.2360 C   0  0  0  0  0  0  0  0  0  0  0  0
   11.5850   12.1660    2.3350 C   0  0  0  0  0  0  0  0  0  0  0  0
   10.1670   12.1250    2.2100 C   0  0  0  0  0  0  0  0  0  0  0  0
    9.5580   13.0470    3.0270 C   0  0  0  0  0  0  0  0  0  0  0  0
   10.6910   13.9470    3.9340 S   0  0  0  0  0  0  0  0  0  0  0  0
   14.3730   12.2300    3.4260 C   0  0  0  0  0  0  0  0  0  0  0  0
   15.0750   12.2720    2.3700 O   0  0  0  0  0  0  0  0  0  0  0  0
   14.3410   11.3520    4.3370 O   0  0  0  0  0  1  0  0  0  0  0  0
   12.9904   15.3864    4.1606 H   0  0  0  0  0  0  0  0  0  0  0  0
   18.2323   15.6860    3.1828 H   0  0  0  0  0  0  0  0  0  0  0  0
   15.9720   14.9349    2.4623 H   0  0  0  0  0  0  0  0  0  0  0  0
   14.5937   15.2166    6.5432 H   0  0  0  0  0  0  0  0  0  0  0  0
   16.8608   15.9623    7.2636 H   0  0  0  0  0  0  0  0  0  0  0  0
   20.0455   15.3450    7.4802 H   0  0  0  0  0  0  0  0  0  0  0  0
   20.4505   13.7656    6.7265 H   0  0  0  0  0  0  0  0  0  0  0  0
   21.6569   15.0965    6.7265 H   0  0  0  0  0  0  0  0  0  0  0  0
   20.8503   15.8414    4.7699 H   0  0  0  0  0  0  0  0  0  0  0  0
   19.6523   14.4856    4.7691 H   0  0  0  0  0  0  0  0  0  0  0  0
   12.2569   11.5035    1.7696 H   0  0  0  0  0  0  0  0  0  0  0  0
    9.6256   11.4394    1.5415 H   0  0  0  0  0  0  0  0  0  0  0  0
    8.4689   13.1886    3.0894 H   0  0  0  0  0  0  0  0  0  0  0  0
  2  1  2  0
  4  3  2  0
  5  4  1  0
  6  5  2  0
  6  1  1  0
  7  6  1  0
  8  7  2  0
  8  3  1  0
  9  3  1  0
 11 10  1  0
 11  9  1  0
 12  2  1  0
 13 12  2  0
 14 13  1  0
 15 14  2  0
 16 15  1  0
 16 12  1  0
 17  2  1  0
 18 17  2  0
 19 17  1  0
  1 20  1  0
  4 21  1  0
  5 22  1  0
  7 23  1  0
  8 24  1  0
 10 25  1  0
 10 26  1  0
 10 27  1  0
 11 28  1  0
 11 29  1  0
 13 30  1  0
 14 31  1  0
 15 32  1  0
M  CHG  1  19  -1
M  END
$$$$
=
     RDKit          3D

 31 33  0  0  0  0  0  0  0  0999 V2000
   18.8030   15.2160    3.8780 C   0  0  0  0  0  0  0  0  0  0  0  0
   18.4220   14.0440    3.3450 C   0  0  0  0  0  0  0  0  0  0  0  0
   17.0230   13.6420    3.2800 C   0  0  0  0  0  0  0  0  0  0  0  0
   16.6650   12.4180    2.7030 C   0  0  0  0  0  0  0  0  0  0  0  0
   15.3280   12.0310    2.6510 C   0  0  0  0  0  0  0  0  0  0  0  0
   14.3400   12.8670    3.1670 C   0  0  0  0  0  0  0  0  0  0  0  0
   14.6820   14.1050    3.7300 C   0  0  0  0  0  0  0  0  0  0  0  0
   16.0360   14.4870    3.7950 C   0  0  0  0  0  0  0  0  0  0  0  0
   16.4180   15.7230    4.3810 N   0  0  0  0  0  0  0  0  0  0  0  0
   17.7540   16.0990    4.5180 C   0  0  0  0  0  0  0  0  0  0  0  0
   18.0840   17.1040    5.1530 O   0  0  0  0  0  0  0  0  0  0  0  0
   15.3980   16.5580    4.9960 C   0  0  0  0  0  0  0  0  0  0  0  0
   14.0460   16.4410    4.3110 C   0  0  0  0  0  0  0  0  0  0  0  0
   13.6020   14.9880    4.2920 C   0  0  0  0  0  0  0  0  0  0  0  0
   21.0190   15.6160    5.0480 C   0  0  0  0  0  0  0  0  0  0  0  0
   20.2010   15.6190    3.9830 C   0  0  0  0  0  0  0  0  0  0  0  0
   19.9340   14.2400    6.6570 O   0  0  0  0  0  1  0  0  0  0  0  0
   20.7700   15.1660    6.4870 C   0  0  0  0  0  0  0  0  0  0  0  0
   21.4710   15.7860    7.3380 O   0  0  0  0  0  0  0  0  0  0  0  0
   19.1902   13.3660    2.9448 H   0  0  0  0  0  0  0  0  0  0  0  0
   17.4426   11.7592    2.2890 H   0  0  0  0  0  0  0  0  0  0  0  0
   15.0521   11.0652    2.2025 H   0  0  0  0  0  0  0  0  0  0  0  0
   13.2860   12.5542    3.1326 H   0  0  0  0  0  0  0  0  0  0  0  0
   15.2856   16.2573    6.0481 H   0  0  0  0  0  0  0  0  0  0  0  0
   15.7264   17.6036    4.9020 H   0  0  0  0  0  0  0  0  0  0  0  0
   13.3056   17.0418    4.8595 H   0  0  0  0  0  0  0  0  0  0  0  0
   14.1297   16.8085    3.2776 H   0  0  0  0  0  0  0  0  0  0  0  0
   12.7001   14.8950    3.6692 H   0  0  0  0  0  0  0  0  0  0  0  0
   13.3901   14.6713    5.3239 H   0  0  0  0  0  0  0  0  0  0  0  0
   22.0315   15.9992    4.8531 H   0  0  0  0  0  0  0  0  0  0  0  0
   20.6539   15.9802    3.0479 H   0  0  0  0  0  0  0  0  0  0  0  0
  2  1  2  0
  3  2  1  0
  4  3  2  0
  5  4  1  0
  6  5  2  0
  7  6  1  0
  8  7  2  0
  8  3  1  0
  9  8  1  0
 10  9  1  0
 10  1  1  0
 11 10  2  0
 12  9  1  0
 13 12  1  0
 14  7  1  0
 14 13  1  0
 16 15  2  0
 16  1  1  0
 18 15  1  0
 18 17  1  0
 19 18  2  0
  2 20  1  0
  4 21  1  0
  5 22  1  0
  6 23  1  0
 12 24  1  0
 12 25  1  0
 13 26  1  0
 13 27  1  0
 14 28  1  0
 14 29  1  0
 15 30  1  0
 16 31  1  0
M  CHG  1  17  -1
M  END
$$$$
=
     RDKit          3D

 48 49  0  0  0  0  0  0  0  0999 V2000
   11.3070   13.5220    4.4990 C   0  0  1  0  0  0  0  0  0  0  0  0
    9.2460   14.2050    5.6770 N   0  0  0  0  0  0  0  0  0  0  0  0
   10.4970   13.6680    5.8090 C   0  0  0  0  0  0  0  0  0  0  0  0
   10.9730   13.3200    6.8940 O   0  0  0  0  0  0  0  0  0  0  0  0
    8.2640   14.2750    6.7670 C   0  0  0  0  0  0  0  0  0  0  0  0
    6.7670   15.1590    5.1320 O   0  0  0  0  0  1  0  0  0  0  0  0
    6.9150   14.9320    6.3660 C   0  0  0  0  0  0  0  0  0  0  0  0
    6.1220   15.1700    7.3290 O   0  0  0  0  0  0  0  0  0  0  0  0
   10.3280   13.5340    3.4120 N   0  0  0  0  0  0  0  0  0  0  0  0
   10.1300   12.4970    2.5630 C   0  0  0  0  0  0  0  0  0  0  0  0
   10.7860   11.4670    2.5490 O   0  0  0  0  0  0  0  0  0  0  0  0
    9.0990   12.7950    1.7410 O   0  0  0  0  0  0  0  0  0  0  0  0
    7.8050   12.1650    1.9170 C   0  0  0  0  0  0  0  0  0  0  0  0
    6.8090   13.1270    1.2510 C   0  0  0  0  0  0  0  0  0  0  0  0
    7.4430   12.0400    3.4020 C   0  0  0  0  0  0  0  0  0  0  0  0
    7.7390   10.8150    1.1960 C   0  0  0  0  0  0  0  0  0  0  0  0
   12.3300   14.6610    4.3340 C   0  0  0  0  0  0  0  0  0  0  0  0
   13.6940   14.1580    3.9830 C   0  0  0  0  0  0  0  0  0  0  0  0
   13.9720   13.0320    3.2370 C   0  0  0  0  0  0  0  0  0  0  0  0
   15.3040   13.0500    2.9200 N   0  0  0  0  0  0  0  0  0  0  0  0
   15.9360   14.0660    3.5990 C   0  0  0  0  0  0  0  0  0  0  0  0
   14.9470   14.7830    4.2750 C   0  0  0  0  0  0  0  0  0  0  0  0
   15.3260   15.9270    5.0070 C   0  0  0  0  0  0  0  0  0  0  0  0
   16.6750   16.2960    5.0560 C   0  0  0  0  0  0  0  0  0  0  0  0
   17.6400   15.5570    4.3760 C   0  0  0  0  0  0  0  0  0  0  0  0
   17.2870   14.4300    3.6270 C   0  0  0  0  0  0  0  0  0  0  0  0
   11.8916   12.5902    4.5028 H   0  0  0  0  0  0  0  0  0  0  0  0
    8.9763   14.5831    4.7577 H   0  0  0  0  0  0  0  0  0  0  0  0
    8.0597   13.2513    7.1138 H   0  0  0  0  0  0  0  0  0  0  0  0
    8.7048   14.9096    7.5499 H   0  0  0  0  0  0  0  0  0  0  0  0
    9.7555   14.3807    3.2847 H   0  0  0  0  0  0  0  0  0  0  0  0
    6.2480   13.6688    2.0267 H   0  0  0  0  0  0  0  0  0  0  0  0
    7.3569   13.8464    0.6248 H   0  0  0  0  0  0  0  0  0  0  0  0
    6.1090   12.5544    0.6248 H   0  0  0  0  0  0  0  0  0  0  0  0
    8.3057   12.3379    4.0160 H   0  0  0  0  0  0  0  0  0  0  0  0
    6.5887   12.6952    3.6276 H   0  0  0  0  0  0  0  0  0  0  0  0
    7.1750   10.9973    3.6276 H   0  0  0  0  0  0  0  0  0  0  0  0
    7.6994   10.0043    1.9385 H   0  0  0  0  0  0  0  0  0  0  0  0
    6.8380   10.7795    0.5659 H   0  0  0  0  0  0  0  0  0  0  0  0
    8.6322   10.6918    0.5659 H   0  0  0  0  0  0  0  0  0  0  0  0
   11.9847   15.3324    3.5340 H   0  0  0  0  0  0  0  0  0  0  0  0
   12.4047   15.1860    5.2977 H   0  0  0  0  0  0  0  0  0  0  0  0
   13.2496   12.2548    2.9471 H   0  0  0  0  0  0  0  0  0  0  0  0
   15.7650   12.3986    2.2689 H   0  0  0  0  0  0  0  0  0  0  0  0
   14.5679   16.5242    5.5349 H   0  0  0  0  0  0  0  0  0  0  0  0
   16.9765   17.1794    5.6380 H   0  0  0  0  0  0  0  0  0  0  0  0
   18.6949   15.8642    4.4288 H   0  0  0  0  0  0  0  0  0  0  0  0
   18.0445   13.8502    3.0792 H   0  0  0  0  0  0  0  0  0  0  0  0
  3  2  1  0
  3  1  1  0
  4  3  2  0
  5  2  1  0
  7  6  1  0
  7  5  1  0
  8  7  2  0
  9  1  1  0
 10  9  1  0
 11 10  2  0
 12 10  1  0
 13 12  1  0
 14 13  1  0
 15 13  1  0
 16 13  1  0
 17  1  1  0
 18 17  1  0
 19 18  2  0
 20 19  1  0
 21 20  1  0
 22 21  2  0
 22 18  1  0
 23 22  1  0
 24 23  2  0
 25 24  1  0
 26 21  1  0
 26 25  2  0
  1 27  1  1
  2 28  1  0
  5 29  1  0
  5 30  1  0
  9 31  1  0
 14 32  1  0
 14 33  1  0
 14 34  1  0
 15 35  1  0
 15 36  1  0
 15 37  1  0
 16 38  1  0
 16 39  1  0
 16 40  1  0
 17 41  1  0
 17 42  1  0
 19 43  1  0
 20 44  1  0
 23 45  1  0
 24 46  1  0
 25 47  1  0
 26 48  1  0
M  CHG  1   6  -1
M  END
$$$$
=
     RDKit          3D

 35 36  0  0  0  0  0  0  0  0999 V2000
   16.9540   15.1790    4.0380 N   0  0  0  0  0  0  0  0  0  0  0  0
   18.2980   14.9000    3.9060 C   0  0  0  0  0  0  0  0  0  0  0  0
   18.8310   13.8840    3.4840 O   0  0  0  0  0  0  0  0  0  0  0  0
   13.5650   12.8520    3.0920 C   0  0  0  0  0  0  0  0  0  0  0  0
   14.8060   12.4970    2.5630 C   0  0  0  0  0  0  0  0  0  0  0  0
   15.9460   13.2550    2.8630 C   0  0  0  0  0  0  0  0  0  0  0  0
   15.8600   14.3720    3.6920 C   0  0  0  0  0  0  0  0  0  0  0  0
   14.6150   14.7250    4.2200 C   0  0  0  0  0  0  0  0  0  0  0  0
   13.4770   13.9700    3.9220 C   0  0  0  0  0  0  0  0  0  0  0  0
   11.1930   12.9530    3.0740 C   0  0  0  0  0  0  0  0  0  0  0  0
   12.3820   12.1990    2.8770 O   0  0  0  0  0  0  0  0  0  0  0  0
   19.1210   16.0280    4.4060 C   0  0  2  0  0  0  0  0  0  0  0  0
   19.5540   15.8710    5.8810 C   0  0  2  0  0  0  0  0  0  0  0  0
   18.7980   17.0960    5.4170 C   0  0  0  0  0  0  0  0  0  0  0  0
   17.3680   17.2480    5.8690 C   0  0  0  0  0  0  0  0  0  0  0  0
   19.5440   18.4030    5.3250 C   0  0  0  0  0  0  0  0  0  0  0  0
   21.0010   15.6560    5.9690 C   0  0  0  0  0  0  0  0  0  0  0  0
   21.6540   15.4180    4.9130 O   0  0  0  0  0  0  0  0  0  0  0  0
   21.4800   15.7470    7.1480 O   0  0  0  0  0  1  0  0  0  0  0  0
   16.7239   16.0978    4.4426 H   0  0  0  0  0  0  0  0  0  0  0  0
   14.8902   11.6179    1.9072 H   0  0  0  0  0  0  0  0  0  0  0  0
   16.9190   12.9652    2.4396 H   0  0  0  0  0  0  0  0  0  0  0  0
   14.5300   15.6043    4.8755 H   0  0  0  0  0  0  0  0  0  0  0  0
   12.5040   14.2597    4.3454 H   0  0  0  0  0  0  0  0  0  0  0  0
   11.0077   13.0705    4.1519 H   0  0  0  0  0  0  0  0  0  0  0  0
   11.3066   13.9444    2.6113 H   0  0  0  0  0  0  0  0  0  0  0  0
   10.3447   12.4275    2.6113 H   0  0  0  0  0  0  0  0  0  0  0  0
   19.5090   16.1492    3.3839 H   0  0  0  0  0  0  0  0  0  0  0  0
   19.3956   15.2864    6.7992 H   0  0  0  0  0  0  0  0  0  0  0  0
   17.3294   17.2521    6.9683 H   0  0  0  0  0  0  0  0  0  0  0  0
   16.9605   18.1945    5.4843 H   0  0  0  0  0  0  0  0  0  0  0  0
   16.7706   16.4083    5.4843 H   0  0  0  0  0  0  0  0  0  0  0  0
   19.7568   18.7758    6.3378 H   0  0  0  0  0  0  0  0  0  0  0  0
   20.4898   18.2482    4.7850 H   0  0  0  0  0  0  0  0  0  0  0  0
   18.9297   19.1386    4.7850 H   0  0  0  0  0  0  0  0  0  0  0  0
  2  1  1  0
  3  2  2  0
  5  4  2  0
  6  5  1  0
  7  6  2  0
  7  1  1  0
  8  7  1  0
  9  8  2  0
  9  4  1  0
 11 10  1  0
 11  4  1  0
 12  2  1  0
 13 12  1  0
 14 12  1  0
 14 13  1  0
 15 14  1  0
 16 14  1  0
 17 13  1  0
 18 17  2  0
 19 17  1  0
  1 20  1  0
  5 21  1  0
  6 22  1  0
  8 23  1  0
  9 24  1  0
 10 25  1  0
 10 26  1  0
 10 27  1  0
 12 28  1  6
 13 29  1  1
 15 30  1  0
 15 31  1  0
 15 32  1  0
 16 33  1  0
 16 34  1  0
 16 35  1  0
M  CHG  1  19  -1
M  END
$$$$
=
     RDKit          3D

 20 20  0  0  0  0  0  0  0  0999 V2000
   21.1470   17.0700    5.1580 C   0  0  0  0  0  0  0  0  0  0  0  0
   21.1180   15.6710    5.3000 C   0  0  0  0  0  0  0  0  0  0  0  0
   19.9060   15.1510    5.0460 N   0  0  0  0  0  0  0  0  0  0  0  0
   19.1710   16.2470    4.7430 N   0  0  0  0  0  0  0  0  0  0  0  0
   19.8740   17.4120    4.7980 C   0  0  0  0  0  0  0  0  0  0  0  0
   19.3880   18.6330    4.5450 F   0  0  0  0  0  0  0  0  0  0  0  0
   23.0910   17.6900    6.4020 O   0  0  0  0  0  1  0  0  0  0  0  0
   22.3870   17.9660    5.3810 C   0  0  0  0  0  0  0  0  0  0  0  0
   22.5990   18.8880    4.5390 O   0  0  0  0  0  0  0  0  0  0  0  0
   17.7720   16.1120    4.3980 C   0  0  0  0  0  0  0  0  0  0  0  0
   16.8590   16.7100    5.4630 C   0  0  0  0  0  0  0  0  0  0  0  0
   16.6420   15.7410    6.6150 C   0  0  0  0  0  0  0  0  0  0  0  0
   21.9923   15.0686    5.5876 H   0  0  0  0  0  0  0  0  0  0  0  0
   17.5903   16.6287    3.4441 H   0  0  0  0  0  0  0  0  0  0  0  0
   17.5441   15.0387    4.3198 H   0  0  0  0  0  0  0  0  0  0  0  0
   17.3178   17.6311    5.8516 H   0  0  0  0  0  0  0  0  0  0  0  0
   15.8834   16.9244    5.0023 H   0  0  0  0  0  0  0  0  0  0  0  0
   16.7613   16.2739    7.5698 H   0  0  0  0  0  0  0  0  0  0  0  0
   15.6274   15.3204    6.5542 H   0  0  0  0  0  0  0  0  0  0  0  0
   17.3803   14.9278    6.5542 H   0  0  0  0  0  0  0  0  0  0  0  0
  2  1  1  0
  3  2  2  0
  4  3  1  0
  5  4  1  0
  5  1  2  0
  6  5  1  0
  8  1  1  0
  8  7  1  0
  9  8  2  0
 10  4  1  0
 11 10  1  0
 12 11  1  0
  2 13  1  0
 10 14  1  0
 10 15  1  0
 11 16  1  0
 11 17  1  0
 12 18  1  0
 12 19  1  0
 12 20  1  0
M  CHG  1   7  -1
M  END
$$$$
=
     RDKit          3D

 66 68  0  0  0  0  0  0  0  0999 V2000
   24.0800   25.4460   12.2700 C   0  0  0  0  0  0  0  0  0  0  0  0
   23.6680   26.2690   11.4500 O   0  0  0  0  0  0  0  0  0  0  0  0
   25.2400   24.7340   12.0450 N   0  0  0  0  0  0  0  0  0  0  0  0
   26.0210   24.9500   10.8420 C   0  0  0  0  0  0  0  0  0  0  0  0
   27.2440   24.0600   11.0020 C   0  0  0  0  0  0  0  0  0  0  0  0
   26.7260   22.9150   11.8690 C   0  0  0  0  0  0  0  0  0  0  0  0
   25.7770   23.6230   12.8380 C   0  0  1  0  0  0  0  0  0  0  0  0
   26.5390   24.1060   14.0900 C   0  0  0  0  0  0  0  0  0  0  0  0
   26.5410   23.4980   15.1560 O   0  0  0  0  0  0  0  0  0  0  0  0
   27.2400   25.2700   13.8970 N   0  0  0  0  0  0  0  0  0  0  0  0
   27.9980   25.9340   14.9640 C   0  0  2  0  0  0  0  0  0  0  0  0
   27.0770   27.0690   15.4610 C   0  0  0  0  0  0  0  0  0  0  0  0
   27.0520   28.1630   14.8940 O   0  0  0  0  0  0  0  0  0  0  0  0
   26.3250   26.7610   16.5520 N   0  0  0  0  0  0  0  0  0  0  0  0
   25.3510   27.6580   17.1820 C   0  0  0  0  0  0  0  0  0  0  0  0
   23.9280   27.0400   17.2170 C   0  0  0  0  0  0  0  0  0  0  0  0
   23.1870   27.4010   16.2500 O   0  0  0  0  0  0  0  0  0  0  0  0
   23.6870   26.2710   18.1870 O   0  0  0  0  0  1  0  0  0  0  0  0
   29.3300   26.4650   14.4110 C   0  0  0  0  0  0  0  0  0  0  0  0
   30.4650   26.6650   15.4350 C   0  0  0  0  0  0  0  0  0  0  0  0
   30.2530   25.7210   16.6240 C   0  0  0  0  0  0  0  0  0  0  0  0
   30.5530   28.1070   15.9370 C   0  0  0  0  0  0  0  0  0  0  0  0
   23.3010   25.1190   13.5490 C   0  0  0  0  0  0  0  0  0  0  0  0
   20.1810   22.1370   16.5920 C   0  0  0  0  0  0  0  0  0  0  0  0
   21.0990   23.1520   16.8610 C   0  0  0  0  0  0  0  0  0  0  0  0
   21.7810   23.7920   15.8140 C   0  0  0  0  0  0  0  0  0  0  0  0
   21.5640   23.4320   14.4810 C   0  0  0  0  0  0  0  0  0  0  0  0
   20.6350   22.4210   14.2360 C   0  0  0  0  0  0  0  0  0  0  0  0
   19.9470   21.7750   15.2670 C   0  0  0  0  0  0  0  0  0  0  0  0
   20.3360   21.9920   12.9280 O   0  0  0  0  0  0  0  0  0  0  0  0
   20.9590   22.5640   11.8340 C   0  0  0  0  0  0  0  0  0  0  0  0
   20.7210   22.2110   10.6840 O   0  0  0  0  0  0  0  0  0  0  0  0
   21.9490   23.6160   12.1060 C   0  0  0  0  0  0  0  0  0  0  0  0
   22.2560   24.0500   13.3390 C   0  0  0  0  0  0  0  0  0  0  0  0
   18.4000   22.1350   18.1610 C   0  0  0  0  0  0  0  0  0  0  0  0
   19.4590   21.4380   17.5180 O   0  0  0  0  0  0  0  0  0  0  0  0
   25.4458   24.6601    9.9503 H   0  0  0  0  0  0  0  0  0  0  0  0
   26.2937   26.0075   10.7106 H   0  0  0  0  0  0  0  0  0  0  0  0
   27.5939   23.6902   10.0269 H   0  0  0  0  0  0  0  0  0  0  0  0
   28.1050   24.5827   11.4442 H   0  0  0  0  0  0  0  0  0  0  0  0
   26.1894   22.1706   11.2624 H   0  0  0  0  0  0  0  0  0  0  0  0
   27.5271   22.3565   12.3754 H   0  0  0  0  0  0  0  0  0  0  0  0
   24.9780   22.9738   13.2254 H   0  0  0  0  0  0  0  0  0  0  0  0
   27.2338   25.6974   12.9599 H   0  0  0  0  0  0  0  0  0  0  0  0
   28.2637   25.2565   15.7889 H   0  0  0  0  0  0  0  0  0  0  0  0
   26.4493   25.8266   16.9671 H   0  0  0  0  0  0  0  0  0  0  0  0
   25.6738   27.8646   18.2131 H   0  0  0  0  0  0  0  0  0  0  0  0
   25.3053   28.5816   16.5863 H   0  0  0  0  0  0  0  0  0  0  0  0
   29.6854   25.7524   13.6521 H   0  0  0  0  0  0  0  0  0  0  0  0
   29.1060   27.4694   14.0224 H   0  0  0  0  0  0  0  0  0  0  0  0
   31.4124   26.4362   14.9251 H   0  0  0  0  0  0  0  0  0  0  0  0
   30.3786   26.2801   17.5630 H   0  0  0  0  0  0  0  0  0  0  0  0
   29.2378   25.2996   16.5811 H   0  0  0  0  0  0  0  0  0  0  0  0
   30.9905   24.9060   16.5811 H   0  0  0  0  0  0  0  0  0  0  0  0
   30.5534   28.1129   17.0370 H   0  0  0  0  0  0  0  0  0  0  0  0
   31.4809   28.5679   15.5675 H   0  0  0  0  0  0  0  0  0  0  0  0
   29.6880   28.6773   15.5675 H   0  0  0  0  0  0  0  0  0  0  0  0
   24.0109   24.7714   14.3140 H   0  0  0  0  0  0  0  0  0  0  0  0
   22.7797   26.0352   13.8632 H   0  0  0  0  0  0  0  0  0  0  0  0
   21.2901   23.4534   17.9015 H   0  0  0  0  0  0  0  0  0  0  0  0
   22.4995   24.5916   16.0471 H   0  0  0  0  0  0  0  0  0  0  0  0
   19.2218   20.9818   15.0327 H   0  0  0  0  0  0  0  0  0  0  0  0
   22.4678   24.0737   11.2508 H   0  0  0  0  0  0  0  0  0  0  0  0
   18.5187   22.0569   19.2518 H   0  0  0  0  0  0  0  0  0  0  0  0
   18.4247   23.1940   17.8644 H   0  0  0  0  0  0  0  0  0  0  0  0
   17.4371   21.6935   17.8644 H   0  0  0  0  0  0  0  0  0  0  0  0
  2  1  2  0
  3  1  1  0
  4  3  1  0
  5  4  1  0
  6  5  1  0
  7  6  1  0
  7  3  1  0
  8  7  1  0
  9  8  2  0
 10  8  1  0
 11 10  1  0
 12 11  1  0
 13 12  2  0
 14 12  1  0
 15 14  1  0
 16 15  1  0
 17 16  2  0
 18 16  1  0
 19 11  1  0
 20 19  1  0
 21 20  1  0
 22 20  1  0
 23  1  1  0
 25 24  2  0
 26 25  1  0
 27 26  2  0
 28 27  1  0
 29 28  2  0
 29 24  1  0
 30 28  1  0
 31 30  1  0
 32 31  2  0
 33 31  1  0
 34 27  1  0
 34 33  2  0
 34 23  1  0
 36 35  1  0
 36 24  1  0
  4 37  1  0
  4 38  1  0
  5 39  1  0
  5 40  1  0
  6 41  1  0
  6 42  1  0
  7 43  1  1
 10 44  1  0
 11 45  1  1
 14 46  1  0
 15 47  1  0
 15 48  1  0
 19 49  1  0
 19 50  1  0
 20 51  1  0
 21 52  1  0
 21 53  1  0
 21 54  1  0
 22 55  1  0
 22 56  1  0
 22 57  1  0
 23 58  1  0
 23 59  1  0
 25 60  1  0
 26 61  1  0
 29 62  1  0
 33 63  1  0
 35 64  1  0
 35 65  1  0
 35 66  1  0
M  CHG  1  18  -1
M  END
$$$$
=
     RDKit          3D

 17 17  0  0  0  0  0  0  0  0999 V2000
   16.8180   15.9760    4.8540 C   0  0  0  0  0  0  0  0  0  0  0  0
   15.4360   15.8650    4.9520 C   0  0  0  0  0  0  0  0  0  0  0  0
   14.7990   14.8240    4.2820 C   0  0  0  0  0  0  0  0  0  0  0  0
   15.5480   13.9160    3.5270 C   0  0  0  0  0  0  0  0  0  0  0  0
   16.9220   14.1140    3.4920 C   0  0  0  0  0  0  0  0  0  0  0  0
   17.5750   15.1190    4.1350 N   0  0  0  0  0  0  0  0  0  0  0  0
   14.9150   12.7760    2.7840 C   0  0  0  0  0  0  0  0  0  0  0  0
   15.6960   11.9780    2.1770 O   0  0  0  0  0  0  0  0  0  0  0  0
   13.6470   12.6960    2.8200 O   0  0  0  0  0  1  0  0  0  0  0  0
   19.0980   17.5200    4.6720 C   0  0  0  0  0  0  0  0  0  0  0  0
   17.6330   17.3150    5.7170 S   0  0  0  0  0  0  0  0  0  0  0  0
   14.8566   16.5859    5.5475 H   0  0  0  0  0  0  0  0  0  0  0  0
   13.7062   14.7157    4.3466 H   0  0  0  0  0  0  0  0  0  0  0  0
   17.5251   13.4079    2.9024 H   0  0  0  0  0  0  0  0  0  0  0  0
   19.9872   17.6444    5.3075 H   0  0  0  0  0  0  0  0  0  0  0  0
   19.2228   16.6306    4.0369 H   0  0  0  0  0  0  0  0  0  0  0  0
   18.9738   18.4095    4.0369 H   0  0  0  0  0  0  0  0  0  0  0  0
  2  1  2  0
  3  2  1  0
  4  3  2  0
  5  4  1  0
  6  5  2  0
  6  1  1  0
  7  4  1  0
  8  7  2  0
  9  7  1  0
 11  1  1  0
 11 10  1  0
  2 12  1  0
  3 13  1  0
  5 14  1  0
 10 15  1  0
 10 16  1  0
 10 17  1  0
M  CHG  1   9  -1
M  END
$$$$
=
     RDKit          3D

 17 18  0  0  0  0  0  0  0  0999 V2000
   19.4370   15.3160    5.4250 C   0  0  0  0  0  0  0  0  0  0  0  0
   18.4150   16.1370    5.8690 C   0  0  0  0  0  0  0  0  0  0  0  0
   17.3030   15.7610    5.1760 N   0  0  0  0  0  0  0  0  0  0  0  0
   17.6760   14.7220    4.3300 C   0  0  0  0  0  0  0  0  0  0  0  0
   18.9560   14.4350    4.4600 N   0  0  0  0  0  0  0  0  0  0  0  0
   16.6470   14.1810    3.5090 C   0  0  0  0  0  0  0  0  0  0  0  0
   16.9410   13.1710    2.6650 F   0  0  0  0  0  0  0  0  0  0  0  0
   15.3930   14.6650    3.5700 C   0  0  0  0  0  0  0  0  0  0  0  0
   15.0450   15.7550    4.4710 C   0  0  0  0  0  0  0  0  0  0  0  0
   16.0080   16.2750    5.2510 C   0  0  0  0  0  0  0  0  0  0  0  0
   21.8590   15.4490    5.1000 O   0  0  0  0  0  1  0  0  0  0  0  0
   20.9430   15.4170    5.9850 C   0  0  0  0  0  0  0  0  0  0  0  0
   21.1060   15.4570    7.2430 O   0  0  0  0  0  0  0  0  0  0  0  0
   18.4857   16.9312    6.6268 H   0  0  0  0  0  0  0  0  0  0  0  0
   14.6150   14.2286    2.9264 H   0  0  0  0  0  0  0  0  0  0  0  0
   14.0169   16.1440    4.5122 H   0  0  0  0  0  0  0  0  0  0  0  0
   15.7773   17.0987    5.9426 H   0  0  0  0  0  0  0  0  0  0  0  0
  2  1  2  0
  3  2  1  0
  4  3  1  0
  5  4  2  0
  5  1  1  0
  6  4  1  0
  7  6  1  0
  8  6  2  0
  9  8  1  0
 10  9  2  0
 10  3  1  0
 12  1  1  0
 12 11  1  0
 13 12  2  0
  2 14  1  0
  8 15  1  0
  9 16  1  0
 10 17  1  0
M  CHG  1  11  -1
M  END
$$$$
=
     RDKit          3D

 36 38  0  0  0  0  0  0  0  0999 V2000
   12.4130   13.4110    3.8280 C   0  0  0  0  0  0  0  0  0  0  0  0
   12.5050   12.3150    2.9980 C   0  0  0  0  0  0  0  0  0  0  0  0
   13.8020   12.2110    2.5740 N   0  0  0  0  0  0  0  0  0  0  0  0
   14.5650   13.2200    3.1130 C   0  0  0  0  0  0  0  0  0  0  0  0
   13.7190   13.9930    3.9100 C   0  0  0  0  0  0  0  0  0  0  0  0
   14.2630   15.1100    4.5870 C   0  0  0  0  0  0  0  0  0  0  0  0
   15.6210   15.4150    4.4450 C   0  0  0  0  0  0  0  0  0  0  0  0
   16.4330   14.6170    3.6370 C   0  0  0  0  0  0  0  0  0  0  0  0
   15.9250   13.5050    2.9560 C   0  0  0  0  0  0  0  0  0  0  0  0
   10.7990   13.5180    5.7050 C   0  0  0  0  0  0  0  0  0  0  0  0
   11.2310   13.8770    4.4850 C   0  0  0  0  0  0  0  0  0  0  0  0
    9.5170   14.3000    7.5490 O   0  0  0  0  0  1  0  0  0  0  0  0
    9.5130   14.0820    6.3050 C   0  0  0  0  0  0  0  0  0  0  0  0
    8.5920   14.2620    5.4570 O   0  0  0  0  0  0  0  0  0  0  0  0
   16.2710   16.4640    5.0410 O   0  0  0  0  0  0  0  0  0  0  0  0
   16.9290   16.1900    6.2800 C   0  0  0  0  0  0  0  0  0  0  0  0
   18.4260   16.1790    6.0550 C   0  0  0  0  0  0  0  0  0  0  0  0
   19.1930   15.0690    6.4360 C   0  0  0  0  0  0  0  0  0  0  0  0
   20.5690   15.0450    6.2000 C   0  0  0  0  0  0  0  0  0  0  0  0
   21.1920   16.1240    5.5750 C   0  0  0  0  0  0  0  0  0  0  0  0
   20.4380   17.2280    5.1820 C   0  0  0  0  0  0  0  0  0  0  0  0
   19.0620   17.2540    5.4170 C   0  0  0  0  0  0  0  0  0  0  0  0
   11.6798   11.6412    2.7240 H   0  0  0  0  0  0  0  0  0  0  0  0
   14.1565   11.4802    1.9406 H   0  0  0  0  0  0  0  0  0  0  0  0
   13.6203   15.7366    5.2229 H   0  0  0  0  0  0  0  0  0  0  0  0
   17.4988   14.8686    3.5330 H   0  0  0  0  0  0  0  0  0  0  0  0
   16.5704   12.8794    2.3219 H   0  0  0  0  0  0  0  0  0  0  0  0
   11.3889   12.7964    6.2892 H   0  0  0  0  0  0  0  0  0  0  0  0
   10.6134   14.6027    3.9356 H   0  0  0  0  0  0  0  0  0  0  0  0
   16.6726   16.9689    7.0132 H   0  0  0  0  0  0  0  0  0  0  0  0
   16.6049   15.2110    6.6627 H   0  0  0  0  0  0  0  0  0  0  0  0
   18.7075   14.2111    6.9242 H   0  0  0  0  0  0  0  0  0  0  0  0
   21.1631   14.1720    6.5082 H   0  0  0  0  0  0  0  0  0  0  0  0
   22.2766   16.1040    5.3924 H   0  0  0  0  0  0  0  0  0  0  0  0
   20.9272   18.0795    4.6863 H   0  0  0  0  0  0  0  0  0  0  0  0
   18.4712   18.1256    5.0988 H   0  0  0  0  0  0  0  0  0  0  0  0
  2  1  2  0
  3  2  1  0
  4  3  1  0
  5  4  2  0
  5  1  1  0
  6  5  1  0
  7  6  2  0
  8  7  1  0
  9  4  1  0
  9  8  2  0
 11 10  2  0
 11  1  1  0
 13 12  1  0
 13 10  1  0
 14 13  2  0
 15  7  1  0
 16 15  1  0
 17 16  1  0
 18 17  2  0
 19 18  1  0
 20 19  2  0
 21 20  1  0
 22 17  1  0
 22 21  2  0
  2 23  1  0
  3 24  1  0
  6 25  1  0
  8 26  1  0
  9 27  1  0
 10 28  1  0
 11 29  1  0
 16 30  1  0
 16 31  1  0
 18 32  1  0
 19 33  1  0
 20 34  1  0
 21 35  1  0
 22 36  1  0
M  CHG  1  12  -1
M  END
$$$$
=
     RDKit          3D

 22 21  0  0  0  0  0  0  0  0999 V2000
   28.8890   23.7670   12.5130 C   0  0  2  0  0  0  0  0  0  0  0  0
   29.3180   22.5700   11.8130 O   0  0  0  0  0  0  0  0  0  0  0  0
   28.7930   23.4520   14.0220 C   0  0  2  0  0  0  0  0  0  0  0  0
   27.3940   23.2030   14.3210 O   0  0  0  0  0  0  0  0  0  0  0  0
   29.2990   24.5610   14.9650 C   0  0  2  0  0  0  0  0  0  0  0  0
   27.5750   24.7420   16.6850 O   0  0  0  0  0  0  0  0  0  0  0  0
   28.0910   25.1850   15.6580 C   0  0  0  0  0  0  0  0  0  0  0  0
   30.0530   25.5410   14.2450 O   0  0  0  0  0  0  0  0  0  0  0  0
   27.6400   24.3020   11.8230 C   0  0  1  0  0  0  0  0  0  0  0  0
   27.5340   25.8370   11.9900 C   0  0  0  0  0  0  0  0  0  0  0  0
   28.5910   26.4540   11.6630 O   0  0  0  0  0  0  0  0  0  0  0  0
   26.4270   26.2670   12.4170 O   0  0  0  0  0  1  0  0  0  0  0  0
   27.7420   23.9630   10.4060 O   0  0  0  0  0  0  0  0  0  0  0  0
   29.6079   24.5980   12.4615 H   0  0  0  0  0  0  0  0  0  0  0  0
   29.5674   21.8741   12.4715 H   0  0  0  0  0  0  0  0  0  0  0  0
   29.4504   22.5891   14.2047 H   0  0  0  0  0  0  0  0  0  0  0  0
   27.2653   23.1801   15.3023 H   0  0  0  0  0  0  0  0  0  0  0  0
   29.9759   24.1338   15.7195 H   0  0  0  0  0  0  0  0  0  0  0  0
   27.6524   26.0895   15.2112 H   0  0  0  0  0  0  0  0  0  0  0  0
   30.5133   26.1393   14.8855 H   0  0  0  0  0  0  0  0  0  0  0  0
   26.7408   23.8544   12.2715 H   0  0  0  0  0  0  0  0  0  0  0  0
   28.0260   23.0193   10.3121 H   0  0  0  0  0  0  0  0  0  0  0  0
  2  1  1  0
  3  1  1  0
  4  3  1  0
  5  3  1  0
  7  5  1  0
  7  6  2  0
  8  5  1  0
  9  1  1  0
 10  9  1  0
 11 10  2  0
 12 10  1  0
 13  9  1  0
  1 14  1  1
  2 15  1  0
  3 16  1  6
  4 17  1  0
  5 18  1  1
  7 19  1  0
  8 20  1  0
  9 21  1  1
 13 22  1  0
M  CHG  1  12  -1
M  END
$$$$
=
     RDKit          3D

 35 36  0  0  0  0  0  0  0  0999 V2000
   16.1980   14.0610    3.3350 C   0  0  0  0  0  0  0  0  0  0  0  0
   15.8150   15.0920    4.1160 C   0  0  0  0  0  0  0  0  0  0  0  0
   14.4210   15.6670    4.0950 C   0  0  0  0  0  0  0  0  0  0  0  0
   16.6610   15.7570    4.9830 N   0  0  0  0  0  0  0  0  0  0  0  0
   17.9200   15.4620    4.9390 C   0  0  0  0  0  0  0  0  0  0  0  0
   18.4220   14.4900    4.1350 N   0  0  0  0  0  0  0  0  0  0  0  0
   17.6070   13.6290    3.4630 C   0  0  0  0  0  0  0  0  0  0  0  0
   18.0340   12.5420    3.0820 O   0  0  0  0  0  0  0  0  0  0  0  0
   18.8900   16.2300    5.8340 C   0  0  0  0  0  0  0  0  0  0  0  0
   19.1390   17.6640    5.3490 C   0  0  0  0  0  0  0  0  0  0  0  0
   20.2850   17.8170    4.3530 C   0  0  0  0  0  0  0  0  0  0  0  0
   21.5500   17.1170    4.8290 C   0  0  0  0  0  0  0  0  0  0  0  0
   21.3000   15.6430    5.1180 C   0  0  0  0  0  0  0  0  0  0  0  0
   20.1730   15.4420    6.1270 C   0  0  0  0  0  0  0  0  0  0  0  0
   15.3480   13.3200    2.3410 C   0  0  0  0  0  0  0  0  0  0  0  0
   14.7870   11.6560    3.9420 O   0  0  0  0  0  1  0  0  0  0  0  0
   14.3260   12.4580    3.0820 C   0  0  0  0  0  0  0  0  0  0  0  0
   13.1220   12.6570    2.7410 O   0  0  0  0  0  0  0  0  0  0  0  0
   14.0687   15.8123    5.1269 H   0  0  0  0  0  0  0  0  0  0  0  0
   14.4312   16.6343    3.5714 H   0  0  0  0  0  0  0  0  0  0  0  0
   13.7463   14.9738    3.5714 H   0  0  0  0  0  0  0  0  0  0  0  0
   19.4428   14.4012    4.0305 H   0  0  0  0  0  0  0  0  0  0  0  0
   18.3920   16.3423    6.8084 H   0  0  0  0  0  0  0  0  0  0  0  0
   18.2183   18.0266    4.8685 H   0  0  0  0  0  0  0  0  0  0  0  0
   19.4246   18.2446    6.2385 H   0  0  0  0  0  0  0  0  0  0  0  0
   19.9792   17.3822    3.3900 H   0  0  0  0  0  0  0  0  0  0  0  0
   20.5071   18.8896    4.2521 H   0  0  0  0  0  0  0  0  0  0  0  0
   22.3203   17.2021    4.0484 H   0  0  0  0  0  0  0  0  0  0  0  0
   21.8802   17.5992    5.7609 H   0  0  0  0  0  0  0  0  0  0  0  0
   21.0304   15.1376    4.1789 H   0  0  0  0  0  0  0  0  0  0  0  0
   22.2202   15.2199    5.5473 H   0  0  0  0  0  0  0  0  0  0  0  0
   19.9190   14.3719    6.1457 H   0  0  0  0  0  0  0  0  0  0  0  0
   20.5515   15.8189    7.0886 H   0  0  0  0  0  0  0  0  0  0  0  0
   14.8215   14.0419    1.6995 H   0  0  0  0  0  0  0  0  0  0  0  0
   15.9887   12.6754    1.7213 H   0  0  0  0  0  0  0  0  0  0  0  0
  2  1  2  0
  3  2  1  0
  4  2  1  0
  5  4  2  0
  6  5  1  0
  7  1  1  0
  7  6  1  0
  8  7  2  0
  9  5  1  0
 10  9  1  0
 11 10  1  0
 12 11  1  0
 13 12  1  0
 14 13  1  0
 14  9  1  0
 15  1  1  0
 17 16  1  0
 17 15  1  0
 18 17  2  0
  3 19  1  0
  3 20  1  0
  3 21  1  0
  6 22  1  0
  9 23  1  0
 10 24  1  0
 10 25  1  0
 11 26  1  0
 11 27  1  0
 12 28  1  0
 12 29  1  0
 13 30  1  0
 13 31  1  0
 14 32  1  0
 14 33  1  0
 15 34  1  0
 15 35  1  0
M  CHG  1  16  -1
M  END
$$$$
=
     RDKit          3D

 53 56  0  0  0  0  0  0  0  0999 V2000
   16.7180   14.8310    3.7410 C   0  0  0  0  0  0  0  0  0  0  0  0
   16.6090   13.5660    3.1460 C   0  0  0  0  0  0  0  0  0  0  0  0
   15.3840   12.9010    3.1030 C   0  0  0  0  0  0  0  0  0  0  0  0
   14.2560   13.5110    3.6550 C   0  0  0  0  0  0  0  0  0  0  0  0
   14.3520   14.7600    4.2710 C   0  0  0  0  0  0  0  0  0  0  0  0
   15.5860   15.4180    4.3100 C   0  0  0  0  0  0  0  0  0  0  0  0
   19.2150   14.1820    5.2500 O   0  0  0  0  0  0  0  0  0  0  0  0
   19.1210   15.0990    4.4380 C   0  0  0  0  0  0  0  0  0  0  0  0
   17.9860   15.4340    3.7140 N   0  0  0  0  0  0  0  0  0  0  0  0
   20.2990   16.0360    4.1120 C   0  0  2  0  0  0  0  0  0  0  0  0
   21.4730   15.8710    5.0900 C   0  0  0  0  0  0  0  0  0  0  0  0
   21.6110   16.9770    6.1190 C   0  0  0  0  0  0  0  0  0  0  0  0
   21.6410   18.3240    5.4190 C   0  0  0  0  0  0  0  0  0  0  0  0
   20.2940   18.6000    4.7790 C   0  0  0  0  0  0  0  0  0  0  0  0
   19.7550   17.4780    3.8930 C   0  0  1  0  0  0  0  0  0  0  0  0
   19.8550   17.6850    2.3710 C   0  0  0  0  0  0  0  0  0  0  0  0
   20.9970   18.1030    1.9960 O   0  0  0  0  0  0  0  0  0  0  0  0
   18.8260   17.4440    1.6930 O   0  0  0  0  0  1  0  0  0  0  0  0
   12.6840   12.6900    3.5350 S   0  0  0  0  0  6  0  0  0  0  0  0
   12.2620   12.7850    2.1530 O   0  0  0  0  0  0  0  0  0  0  0  0
   12.7970   11.4000    4.1890 O   0  0  0  0  0  0  0  0  0  0  0  0
   11.6970   13.6860    4.5060 N   0  0  0  0  0  0  0  0  0  0  0  0
   11.6970   13.3760    5.9760 C   0  0  0  0  0  0  0  0  0  0  0  0
   10.3310   13.8370    6.5100 C   0  0  0  0  0  0  0  0  0  0  0  0
    9.5130   13.9040    5.2630 C   0  0  0  0  0  0  0  0  0  0  0  0
   10.3200   13.8140    4.1290 C   0  0  0  0  0  0  0  0  0  0  0  0
    9.7820   13.9740    2.8630 C   0  0  0  0  0  0  0  0  0  0  0  0
    8.4010   14.1570    2.7450 C   0  0  0  0  0  0  0  0  0  0  0  0
    7.5860   14.2100    3.8850 C   0  0  0  0  0  0  0  0  0  0  0  0
    8.1440   14.0960    5.1600 C   0  0  0  0  0  0  0  0  0  0  0  0
   17.5001   13.0927    2.7080 H   0  0  0  0  0  0  0  0  0  0  0  0
   15.3073   11.9065    2.6392 H   0  0  0  0  0  0  0  0  0  0  0  0
   13.4629   15.2240    4.7229 H   0  0  0  0  0  0  0  0  0  0  0  0
   15.6650   16.4037    4.7918 H   0  0  0  0  0  0  0  0  0  0  0  0
   18.0868   16.2319    3.0705 H   0  0  0  0  0  0  0  0  0  0  0  0
   20.7708   15.7525    3.1596 H   0  0  0  0  0  0  0  0  0  0  0  0
   21.3388   14.9203    5.6269 H   0  0  0  0  0  0  0  0  0  0  0  0
   22.3878   15.9030    4.4800 H   0  0  0  0  0  0  0  0  0  0  0  0
   20.7559   16.9427    6.8101 H   0  0  0  0  0  0  0  0  0  0  0  0
   22.5456   16.8373    6.6819 H   0  0  0  0  0  0  0  0  0  0  0  0
   21.8650   19.1121    6.1529 H   0  0  0  0  0  0  0  0  0  0  0  0
   22.4177   18.3115    4.6401 H   0  0  0  0  0  0  0  0  0  0  0  0
   19.5651   18.7792    5.5831 H   0  0  0  0  0  0  0  0  0  0  0  0
   20.4406   19.4677    4.1190 H   0  0  0  0  0  0  0  0  0  0  0  0
   18.7192   17.5556    4.2551 H   0  0  0  0  0  0  0  0  0  0  0  0
   11.8252   12.2956    6.1381 H   0  0  0  0  0  0  0  0  0  0  0  0
   12.5231   13.8854    6.4937 H   0  0  0  0  0  0  0  0  0  0  0  0
    9.9145   13.1092    7.2219 H   0  0  0  0  0  0  0  0  0  0  0  0
   10.3704   14.7862    7.0645 H   0  0  0  0  0  0  0  0  0  0  0  0
   10.4260   13.9575    1.9714 H   0  0  0  0  0  0  0  0  0  0  0  0
    7.9490   14.2605    1.7475 H   0  0  0  0  0  0  0  0  0  0  0  0
    6.4996   14.3423    3.7741 H   0  0  0  0  0  0  0  0  0  0  0  0
    7.5135   14.1570    6.0593 H   0  0  0  0  0  0  0  0  0  0  0  0
  2  1  2  0
  3  2  1  0
  4  3  2  0
  5  4  1  0
  6  5  2  0
  6  1  1  0
  8  7  2  0
  9  8  1  0
  9  1  1  0
 10  8  1  0
 11 10  1  0
 12 11  1  0
 13 12  1  0
 14 13  1  0
 15 10  1  0
 15 14  1  0
 16 15  1  0
 17 16  2  0
 18 16  1  0
 19  4  1  0
 20 19  2  0
 21 19  2  0
 22 19  1  0
 23 22  1  0
 24 23  1  0
 25 24  1  0
 26 25  2  0
 26 22  1  0
 27 26  1  0
 28 27  2  0
 29 28  1  0
 30 29  2  0
 30 25  1  0
  2 31  1  0
  3 32  1  0
  5 33  1  0
  6 34  1  0
  9 35  1  0
 10 36  1  6
 11 37  1  0
 11 38  1  0
 12 39  1  0
 12 40  1  0
 13 41  1  0
 13 42  1  0
 14 43  1  0
 14 44  1  0
 15 45  1  6
 23 46  1  0
 23 47  1  0
 24 48  1  0
 24 49  1  0
 27 50  1  0
 28 51  1  0
 29 52  1  0
 30 53  1  0
M  CHG  1  18  -1
M  END
$$$$
=
     RDKit          3D

 32 32  0  0  0  0  0  0  0  0999 V2000
   18.7110   13.7480    3.1980 O   0  0  0  0  0  0  0  0  0  0  0  0
   17.8830   14.4280    3.7960 C   0  0  0  0  0  0  0  0  0  0  0  0
   16.5480   14.3840    3.5530 N   0  0  0  0  0  0  0  0  0  0  0  0
   15.8120   13.3410    2.8530 C   0  0  0  0  0  0  0  0  0  0  0  0
   14.6180   13.8090    3.6410 C   0  0  0  0  0  0  0  0  0  0  0  0
   13.3120   13.4670    3.6710 C   0  0  0  0  0  0  0  0  0  0  0  0
   12.7210   12.4030    2.7930 C   0  0  0  0  0  0  0  0  0  0  0  0
   15.4430   14.8200    4.4060 C   0  0  0  0  0  0  0  0  0  0  0  0
   12.3230   14.1680    4.6410 C   0  0  0  0  0  0  0  0  0  0  0  0
   12.0050   15.3480    4.3170 O   0  0  0  0  0  0  0  0  0  0  0  0
   11.9430   13.4870    5.6360 O   0  0  0  0  0  1  0  0  0  0  0  0
   18.1780   15.3310    4.7670 O   0  0  0  0  0  0  0  0  0  0  0  0
   19.1260   16.4010    4.5360 C   0  0  0  0  0  0  0  0  0  0  0  0
   19.0780   16.8840    3.0820 C   0  0  0  0  0  0  0  0  0  0  0  0
   20.5420   15.9930    4.9580 C   0  0  0  0  0  0  0  0  0  0  0  0
   18.6540   17.5430    5.4480 C   0  0  0  0  0  0  0  0  0  0  0  0
   15.7336   13.4775    1.7643 H   0  0  0  0  0  0  0  0  0  0  0  0
   16.1394   12.2909    2.8397 H   0  0  0  0  0  0  0  0  0  0  0  0
   12.2820   11.6126    3.4196 H   0  0  0  0  0  0  0  0  0  0  0  0
   11.9388   12.8444    2.1579 H   0  0  0  0  0  0  0  0  0  0  0  0
   13.5091   11.9721    2.1579 H   0  0  0  0  0  0  0  0  0  0  0  0
   15.1368   15.8683    4.2745 H   0  0  0  0  0  0  0  0  0  0  0  0
   15.5049   14.8323    5.5042 H   0  0  0  0  0  0  0  0  0  0  0  0
   18.9692   17.9784    3.0626 H   0  0  0  0  0  0  0  0  0  0  0  0
   20.0089   16.5989    2.5700 H   0  0  0  0  0  0  0  0  0  0  0  0
   18.2214   16.4213    2.5700 H   0  0  0  0  0  0  0  0  0  0  0  0
   20.6064   15.9745    6.0560 H   0  0  0  0  0  0  0  0  0  0  0  0
   20.7692   14.9928    4.5604 H   0  0  0  0  0  0  0  0  0  0  0  0
   21.2666   16.7189    4.5604 H   0  0  0  0  0  0  0  0  0  0  0  0
   18.7766   17.2465    6.5002 H   0  0  0  0  0  0  0  0  0  0  0  0
   19.2537   18.4433    5.2485 H   0  0  0  0  0  0  0  0  0  0  0  0
   17.5937   17.7572    5.2485 H   0  0  0  0  0  0  0  0  0  0  0  0
  2  1  2  0
  3  2  1  0
  4  3  1  0
  5  4  1  0
  6  5  2  3
  7  6  1  0
  8  5  1  0
  8  3  1  0
  9  6  1  0
 10  9  2  0
 11  9  1  0
 12  2  1  0
 13 12  1  0
 14 13  1  0
 15 13  1  0
 16 13  1  0
  4 17  1  0
  4 18  1  0
  7 19  1  0
  7 20  1  0
  7 21  1  0
  8 22  1  0
  8 23  1  0
 14 24  1  0
 14 25  1  0
 14 26  1  0
 15 27  1  0
 15 28  1  0
 15 29  1  0
 16 30  1  0
 16 31  1  0
 16 32  1  0
M  CHG  1  11  -1
M  END
$$$$
=
     RDKit          3D

 51 52  0  0  0  0  0  0  0  0999 V2000
   25.7020   25.7420   13.4170 N   0  0  0  0  0  4  0  0  0  0  0  0
   25.6870   24.2210   13.4030 C   0  0  0  0  0  0  0  0  0  0  0  0
   24.4530   23.7610   14.1970 C   0  0  0  0  0  0  0  0  0  0  0  0
   23.2870   24.6310   13.9850 N   0  0  0  0  0  0  0  0  0  0  0  0
   23.2790   25.4370   12.7620 C   0  0  0  0  0  0  0  0  0  0  0  0
   24.5520   26.2910   12.5950 C   0  0  0  0  0  0  0  0  0  0  0  0
   22.1190   24.4770   14.7060 C   0  0  0  0  0  0  0  0  0  0  0  0
   21.0970   25.1050   14.4690 O   0  0  0  0  0  0  0  0  0  0  0  0
   27.0570   26.3610   12.9530 C   0  0  1  0  0  0  0  0  0  0  0  0
   27.9290   28.0210   16.3200 C   0  0  0  0  0  0  0  0  0  0  0  0
   28.4740   29.2270   15.8850 C   0  0  0  0  0  0  0  0  0  0  0  0
   28.5800   29.4930   14.5190 C   0  0  0  0  0  0  0  0  0  0  0  0
   28.1350   28.5580   13.5830 C   0  0  0  0  0  0  0  0  0  0  0  0
   27.5820   27.3340   13.9990 C   0  0  0  0  0  0  0  0  0  0  0  0
   27.4860   27.0860   15.3780 C   0  0  0  0  0  0  0  0  0  0  0  0
   28.5470   28.3160   18.5960 C   0  0  0  0  0  0  0  0  0  0  0  0
   27.7550   27.6450   17.6230 O   0  0  0  0  0  0  0  0  0  0  0  0
   28.1320   25.3610   12.3970 C   0  0  0  0  0  0  0  0  0  0  0  0
   28.0350   25.1140   11.1580 O   0  0  0  0  0  0  0  0  0  0  0  0
   29.0290   25.0360   13.2210 O   0  0  0  0  0  1  0  0  0  0  0  0
   22.2600   23.5660   15.7010 O   0  0  0  0  0  0  0  0  0  0  0  0
   21.3640   22.4300   15.8090 C   0  0  0  0  0  0  0  0  0  0  0  0
   20.8700   21.9760   14.4310 C   0  0  0  0  0  0  0  0  0  0  0  0
   20.2040   22.7240   16.7670 C   0  0  0  0  0  0  0  0  0  0  0  0
   22.2280   21.3120   16.4140 C   0  0  0  0  0  0  0  0  0  0  0  0
   25.5857   26.0217   14.4014 H   0  0  0  0  0  0  0  0  0  0  0  0
   25.6241   23.8560   12.3672 H   0  0  0  0  0  0  0  0  0  0  0  0
   26.6074   23.8214   13.8537 H   0  0  0  0  0  0  0  0  0  0  0  0
   24.1923   22.7397   13.8822 H   0  0  0  0  0  0  0  0  0  0  0  0
   24.7100   23.8034   15.2657 H   0  0  0  0  0  0  0  0  0  0  0  0
   23.1940   24.7618   11.8978 H   0  0  0  0  0  0  0  0  0  0  0  0
   22.4257   26.1279   12.8288 H   0  0  0  0  0  0  0  0  0  0  0  0
   24.8419   26.2966   11.5339 H   0  0  0  0  0  0  0  0  0  0  0  0
   24.3323   27.3099   12.9466 H   0  0  0  0  0  0  0  0  0  0  0  0
   26.8239   26.9311   12.0416 H   0  0  0  0  0  0  0  0  0  0  0  0
   28.8209   29.9699   16.6184 H   0  0  0  0  0  0  0  0  0  0  0  0
   29.0162   30.4437   14.1785 H   0  0  0  0  0  0  0  0  0  0  0  0
   28.2178   28.7810   12.5090 H   0  0  0  0  0  0  0  0  0  0  0  0
   27.0532   26.1361   15.7251 H   0  0  0  0  0  0  0  0  0  0  0  0
   28.2100   28.0305   19.6034 H   0  0  0  0  0  0  0  0  0  0  0  0
   29.6023   28.0329   18.4684 H   0  0  0  0  0  0  0  0  0  0  0  0
   28.4411   29.4034   18.4684 H   0  0  0  0  0  0  0  0  0  0  0  0
   20.0653   21.2364   14.5553 H   0  0  0  0  0  0  0  0  0  0  0  0
   20.4873   22.8442   13.8743 H   0  0  0  0  0  0  0  0  0  0  0  0
   21.7028   21.5216   13.8743 H   0  0  0  0  0  0  0  0  0  0  0  0
   20.5548   22.6351   17.8058 H   0  0  0  0  0  0  0  0  0  0  0  0
   19.8331   23.7446   16.5913 H   0  0  0  0  0  0  0  0  0  0  0  0
   19.3917   22.0033   16.5913 H   0  0  0  0  0  0  0  0  0  0  0  0
   22.1845   21.3683   17.5117 H   0  0  0  0  0  0  0  0  0  0  0  0
   21.8483   20.3346   16.0816 H   0  0  0  0  0  0  0  0  0  0  0  0
   23.2696   21.4330   16.0816 H   0  0  0  0  0  0  0  0  0  0  0  0
  2  1  1  0
  3  2  1  0
  4  3  1  0
  5  4  1  0
  6  5  1  0
  6  1  1  0
  7  4  1  0
  8  7  2  0
  9  1  1  0
 11 10  2  0
 12 11  1  0
 13 12  2  0
 14  9  1  0
 14 13  1  0
 15 14  2  0
 15 10  1  0
 17 10  1  0
 17 16  1  0
 18  9  1  0
 19 18  2  0
 20 18  1  0
 21  7  1  0
 22 21  1  0
 23 22  1  0
 24 22  1  0
 25 22  1  0
  1 26  1  0
  2 27  1  0
  2 28  1  0
  3 29  1  0
  3 30  1  0
  5 31  1  0
  5 32  1  0
  6 33  1  0
  6 34  1  0
  9 35  1  6
 11 36  1  0
 12 37  1  0
 13 38  1  0
 15 39  1  0
 16 40  1  0
 16 41  1  0
 16 42  1  0
 23 43  1  0
 23 44  1  0
 23 45  1  0
 24 46  1  0
 24 47  1  0
 24 48  1  0
 25 49  1  0
 25 50  1  0
 25 51  1  0
M  CHG  2   1   1  20  -1
M  END
$$$$
=
     RDKit          3D

 61 67  0  0  0  0  0  0  0  0999 V2000
   21.1430   24.4700   13.3430 C   0  0  2  0  0  0  0  0  0  0  0  0
   22.6780   24.6290   13.3400 C   0  0  2  0  0  0  0  0  0  0  0  0
   23.1730   24.8730   14.7760 C   0  0  2  0  0  0  0  0  0  0  0  0
   24.6250   24.6630   14.5250 C   0  0  0  0  0  0  0  0  0  0  0  0
   25.4040   24.0320   15.2170 O   0  0  0  0  0  0  0  0  0  0  0  0
   24.8450   25.3480   13.3240 N   0  0  0  0  0  0  0  0  0  0  0  0
   23.6200   25.5780   12.6590 C   0  0  0  0  0  0  0  0  0  0  0  0
   23.3930   26.3550   11.7540 O   0  0  0  0  0  0  0  0  0  0  0  0
   22.2500   24.1850   15.7800 C   0  0  1  0  0  0  0  0  0  0  0  0
   21.0570   25.1670   15.7450 C   0  0  0  0  0  0  0  0  0  0  0  0
   20.5200   25.3800   14.4300 C   0  0  0  0  0  0  0  0  0  0  0  0
   19.5200   26.3250   14.2500 C   0  0  0  0  0  0  0  0  0  0  0  0
   19.0410   27.0290   15.3590 C   0  0  0  0  0  0  0  0  0  0  0  0
   19.5550   26.7970   16.6440 C   0  0  0  0  0  0  0  0  0  0  0  0
   20.5730   25.8660   16.8450 C   0  0  0  0  0  0  0  0  0  0  0  0
   21.7080   22.8790   15.2170 C   0  0  0  0  0  0  0  0  0  0  0  0
   21.0470   23.0120   13.9560 C   0  0  0  0  0  0  0  0  0  0  0  0
   20.4540   21.9000   13.3640 C   0  0  0  0  0  0  0  0  0  0  0  0
   20.5210   20.6680   14.0200 C   0  0  0  0  0  0  0  0  0  0  0  0
   21.1770   20.5440   15.2540 C   0  0  0  0  0  0  0  0  0  0  0  0
   21.7720   21.6510   15.8620 C   0  0  0  0  0  0  0  0  0  0  0  0
   26.1210   25.6850   12.7910 C   0  0  0  0  0  0  0  0  0  0  0  0
   26.8160   26.7730   13.3560 C   0  0  0  0  0  0  0  0  0  0  0  0
   28.0310   27.2290   12.8300 C   0  0  0  0  0  0  0  0  0  0  0  0
   28.5960   26.6050   11.7250 C   0  0  0  0  0  0  0  0  0  0  0  0
   27.9590   25.5050   11.1610 C   0  0  0  0  0  0  0  0  0  0  0  0
   26.7390   25.0450   11.6970 C   0  0  0  0  0  0  0  0  0  0  0  0
   26.2630   23.7690   11.1720 N   0  0  0  0  0  4  0  0  0  0  0  0
   26.6900   22.7360   11.7120 O   0  0  0  0  0  0  0  0  0  0  0  0
   25.4040   23.8020   10.2770 O   0  0  0  0  0  1  0  0  0  0  0  0
   19.2300   24.3880   11.8140 N   0  0  0  0  0  0  0  0  0  0  0  0
   20.5110   24.5130   11.9670 C   0  0  0  0  0  0  0  0  0  0  0  0
   17.8560   23.7110    9.8230 C   0  0  0  0  0  0  0  0  0  0  0  0
   17.3730   24.1040    8.5520 C   0  0  0  0  0  0  0  0  0  0  0  0
   17.7360   25.3190    7.9720 C   0  0  0  0  0  0  0  0  0  0  0  0
   18.5860   26.1750    8.6590 C   0  0  0  0  0  0  0  0  0  0  0  0
   19.0610   25.8070    9.9180 C   0  0  0  0  0  0  0  0  0  0  0  0
   18.7160   24.5800   10.5160 C   0  0  0  0  0  0  0  0  0  0  0  0
   16.4510   22.3790   11.1850 O   0  0  0  0  0  1  0  0  0  0  0  0
   17.4000   22.3710   10.3370 C   0  0  0  0  0  0  0  0  0  0  0  0
   17.9190   21.3310    9.8190 O   0  0  0  0  0  0  0  0  0  0  0  0
   22.7371   23.7291   12.7101 H   0  0  0  0  0  0  0  0  0  0  0  0
   23.1106   25.8176   15.3362 H   0  0  0  0  0  0  0  0  0  0  0  0
   22.7321   23.9755   16.7463 H   0  0  0  0  0  0  0  0  0  0  0  0
   19.1094   26.5178   13.2479 H   0  0  0  0  0  0  0  0  0  0  0  0
   18.2472   27.7780   15.2218 H   0  0  0  0  0  0  0  0  0  0  0  0
   19.1506   27.3553   17.5012 H   0  0  0  0  0  0  0  0  0  0  0  0
   20.9835   25.6887   17.8500 H   0  0  0  0  0  0  0  0  0  0  0  0
   19.9409   21.9899   12.3952 H   0  0  0  0  0  0  0  0  0  0  0  0
   20.0532   19.7836   13.5628 H   0  0  0  0  0  0  0  0  0  0  0  0
   21.2231   19.5625   15.7485 H   0  0  0  0  0  0  0  0  0  0  0  0
   22.2811   21.5524   16.8321 H   0  0  0  0  0  0  0  0  0  0  0  0
   26.3917   27.2788   14.2359 H   0  0  0  0  0  0  0  0  0  0  0  0
   28.5408   28.0860   13.2944 H   0  0  0  0  0  0  0  0  0  0  0  0
   29.5394   26.9779   11.2996 H   0  0  0  0  0  0  0  0  0  0  0  0
   28.4072   24.9937   10.2964 H   0  0  0  0  0  0  0  0  0  0  0  0
   21.1501   24.6527   11.0826 H   0  0  0  0  0  0  0  0  0  0  0  0
   16.6929   23.4329    8.0070 H   0  0  0  0  0  0  0  0  0  0  0  0
   17.3523   25.5967    6.9792 H   0  0  0  0  0  0  0  0  0  0  0  0
   18.8827   27.1362    8.2140 H   0  0  0  0  0  0  0  0  0  0  0  0
   19.7252   26.4963   10.4599 H   0  0  0  0  0  0  0  0  0  0  0  0
  2  1  1  0
  3  2  1  0
  4  3  1  0
  5  4  2  0
  6  4  1  0
  7  6  1  0
  7  2  1  0
  8  7  2  0
  9  3  1  0
 10  9  1  0
 11 10  2  0
 11  1  1  0
 12 11  1  0
 13 12  2  0
 14 13  1  0
 15 10  1  0
 15 14  2  0
 16  9  1  0
 17 16  2  0
 17  1  1  0
 18 17  1  0
 19 18  2  0
 20 19  1  0
 21 20  2  0
 21 16  1  0
 22  6  1  0
 23 22  2  0
 24 23  1  0
 25 24  2  0
 26 25  1  0
 27 22  1  0
 27 26  2  0
 28 27  1  0
 29 28  2  0
 30 28  1  0
 32 31  2  0
  1 32  1  6
 34 33  2  0
 35 34  1  0
 36 35  2  0
 37 36  1  0
 38 37  2  0
 38 33  1  0
 38 31  1  0
 40 33  1  0
 40 39  1  0
 41 40  2  0
  2 42  1  6
  3 43  1  1
  9 44  1  1
 12 45  1  0
 13 46  1  0
 14 47  1  0
 15 48  1  0
 18 49  1  0
 19 50  1  0
 20 51  1  0
 21 52  1  0
 23 53  1  0
 24 54  1  0
 25 55  1  0
 26 56  1  0
 32 57  1  0
 34 58  1  0
 35 59  1  0
 36 60  1  0
 37 61  1  0
M  CHG  3  28   1  30  -1  39  -1
M  END
$$$$
=
     RDKit          3D

 30 31  0  0  0  0  0  0  0  0999 V2000
   18.0860   14.7570    4.7370 C   0  0  0  0  0  0  0  0  0  0  0  0
   18.7260   13.7060    4.0530 C   0  0  0  0  0  0  0  0  0  0  0  0
   18.0580   12.9500    3.0920 C   0  0  0  0  0  0  0  0  0  0  0  0
   16.7270   13.2180    2.8050 C   0  0  0  0  0  0  0  0  0  0  0  0
   16.0640   14.2350    3.4920 C   0  0  0  0  0  0  0  0  0  0  0  0
   16.7210   15.0130    4.4700 C   0  0  0  0  0  0  0  0  0  0  0  0
   15.9180   16.0510    5.2270 C   0  0  0  0  0  0  0  0  0  0  0  0
   15.6600   15.6870    6.5150 F   0  0  0  0  0  0  0  0  0  0  0  0
   16.4970   17.2790    5.2750 F   0  0  0  0  0  0  0  0  0  0  0  0
   14.6820   16.2670    4.6750 F   0  0  0  0  0  0  0  0  0  0  0  0
   18.8900   15.5340    5.7660 C   0  0  0  0  0  0  0  0  0  0  0  0
   19.8920   16.5420    5.1850 C   0  0  0  0  0  0  0  0  0  0  0  0
   19.8790   16.9190    3.6510 C   0  0  0  0  0  0  0  0  0  0  0  0
   20.3120   18.3410    4.0630 C   0  0  0  0  0  0  0  0  0  0  0  0
   19.6400   18.0760    5.4250 C   0  0  0  0  0  0  0  0  0  0  0  0
   21.8890   15.2330    4.9010 O   0  0  0  0  0  1  0  0  0  0  0  0
   21.2870   16.0680    5.6480 C   0  0  0  0  0  0  0  0  0  0  0  0
   21.7260   16.5160    6.7520 O   0  0  0  0  0  0  0  0  0  0  0  0
   19.7770   13.4765    4.2824 H   0  0  0  0  0  0  0  0  0  0  0  0
   18.5845   12.1426    2.5620 H   0  0  0  0  0  0  0  0  0  0  0  0
   16.1975   12.6315    2.0397 H   0  0  0  0  0  0  0  0  0  0  0  0
   15.0061   14.4352    3.2668 H   0  0  0  0  0  0  0  0  0  0  0  0
   18.1839   16.0851    6.4045 H   0  0  0  0  0  0  0  0  0  0  0  0
   19.4872   14.7897    6.3132 H   0  0  0  0  0  0  0  0  0  0  0  0
   20.6139   16.3753    3.0392 H   0  0  0  0  0  0  0  0  0  0  0  0
   18.9945   16.7444    3.0207 H   0  0  0  0  0  0  0  0  0  0  0  0
   21.4003   18.4939    4.1101 H   0  0  0  0  0  0  0  0  0  0  0  0
   20.0602   19.2222    3.4546 H   0  0  0  0  0  0  0  0  0  0  0  0
   20.1750   18.4977    6.2887 H   0  0  0  0  0  0  0  0  0  0  0  0
   18.6376   18.4649    5.6573 H   0  0  0  0  0  0  0  0  0  0  0  0
  2  1  2  0
  3  2  1  0
  4  3  2  0
  5  4  1  0
  6  5  2  0
  6  1  1  0
  7  6  1  0
  8  7  1  0
  9  7  1  0
 10  7  1  0
 11  1  1  0
 12 11  1  0
 13 12  1  0
 14 13  1  0
 15 14  1  0
 15 12  1  0
 17 12  1  0
 17 16  1  0
 18 17  2  0
  2 19  1  0
  3 20  1  0
  4 21  1  0
  5 22  1  0
 11 23  1  0
 11 24  1  0
 13 25  1  0
 13 26  1  0
 14 27  1  0
 14 28  1  0
 15 29  1  0
 15 30  1  0
M  CHG  1  16  -1
M  END
$$$$
=
     RDKit          3D

 48 51  0  0  0  0  0  0  0  0999 V2000
   23.6850   26.6300   15.2050 C   0  0  2  0  0  0  0  0  0  0  0  0
   24.5170   26.9880   16.4520 C   0  0  0  0  0  0  0  0  0  0  0  0
   23.6440   27.2030   17.6490 C   0  0  0  0  0  0  0  0  0  0  0  0
   22.5120   26.6640   17.9300 N   0  0  0  0  0  0  0  0  0  0  0  0
   22.0270   25.8180   16.9360 C   0  0  0  0  0  0  0  0  0  0  0  0
   22.4820   25.8400   15.6320 C   0  0  0  0  0  0  0  0  0  0  0  0
   21.6520   25.0060   14.8890 N   0  0  0  0  0  0  0  0  0  0  0  0
   20.8730   24.3070   15.7890 C   0  0  0  0  0  0  0  0  0  0  0  0
   21.0470   24.8320   17.0570 C   0  0  0  0  0  0  0  0  0  0  0  0
   21.5520   24.8640   13.4730 C   0  0  0  0  0  0  0  0  0  0  0  0
   22.0380   23.7030   12.8490 C   0  0  0  0  0  0  0  0  0  0  0  0
   21.9400   23.5490   11.4630 C   0  0  0  0  0  0  0  0  0  0  0  0
   21.3440   24.5440   10.6940 C   0  0  0  0  0  0  0  0  0  0  0  0
   20.8400   25.6790   11.3190 C   0  0  0  0  0  0  0  0  0  0  0  0
   20.9290   25.8460   12.6970 C   0  0  0  0  0  0  0  0  0  0  0  0
   20.2460   26.6240   10.5770 F   0  0  0  0  0  0  0  0  0  0  0  0
   26.3780   24.3430   13.7460 C   0  0  0  0  0  0  0  0  0  0  0  0
   25.5130   24.9650   14.6500 C   0  0  0  0  0  0  0  0  0  0  0  0
   24.6100   25.9400   14.2080 C   0  0  0  0  0  0  0  0  0  0  0  0
   24.5630   26.2310   12.8340 C   0  0  0  0  0  0  0  0  0  0  0  0
   25.4140   25.5860   11.9300 C   0  0  0  0  0  0  0  0  0  0  0  0
   26.3310   24.6330   12.3750 C   0  0  0  0  0  0  0  0  0  0  0  0
   28.4400   24.0260   14.6910 C   0  0  0  0  0  0  0  0  0  0  0  0
   27.2400   23.3940   14.2420 O   0  0  0  0  0  0  0  0  0  0  0  0
   27.2060   23.9450   11.5760 O   0  0  0  0  0  0  0  0  0  0  0  0
   26.7150   22.7750   10.9380 C   0  0  0  0  0  0  0  0  0  0  0  0
   20.2520   24.3510   18.3300 C   0  0  0  0  0  0  0  0  0  0  0  0
   20.4480   23.1730   18.7580 O   0  0  0  0  0  0  0  0  0  0  0  0
   19.4490   25.2040   18.8260 O   0  0  0  0  0  1  0  0  0  0  0  0
   24.1630   28.0290   18.5710 O   0  0  0  0  0  0  0  0  0  0  0  0
   23.2780   27.5105   14.6862 H   0  0  0  0  0  0  0  0  0  0  0  0
   25.2172   26.1662   16.6629 H   0  0  0  0  0  0  0  0  0  0  0  0
   25.0608   27.9222   16.2483 H   0  0  0  0  0  0  0  0  0  0  0  0
   20.2150   23.4624   15.5367 H   0  0  0  0  0  0  0  0  0  0  0  0
   22.4990   22.9094   13.4553 H   0  0  0  0  0  0  0  0  0  0  0  0
   22.3336   22.6421   10.9807 H   0  0  0  0  0  0  0  0  0  0  0  0
   21.2723   24.4335    9.6019 H   0  0  0  0  0  0  0  0  0  0  0  0
   20.5117   26.7454   13.1734 H   0  0  0  0  0  0  0  0  0  0  0  0
   25.5414   24.6875   15.7140 H   0  0  0  0  0  0  0  0  0  0  0  0
   23.8456   26.9779   12.4633 H   0  0  0  0  0  0  0  0  0  0  0  0
   25.3597   25.8322   10.8593 H   0  0  0  0  0  0  0  0  0  0  0  0
   28.4596   24.0363   15.7908 H   0  0  0  0  0  0  0  0  0  0  0  0
   29.3107   23.4695   14.3140 H   0  0  0  0  0  0  0  0  0  0  0  0
   28.4737   25.0588   14.3140 H   0  0  0  0  0  0  0  0  0  0  0  0
   26.4080   22.0433   11.6998 H   0  0  0  0  0  0  0  0  0  0  0  0
   25.8502   23.0353   10.3100 H   0  0  0  0  0  0  0  0  0  0  0  0
   27.5066   22.3402   10.3100 H   0  0  0  0  0  0  0  0  0  0  0  0
   23.6557   28.2301   19.3970 H   0  0  0  0  0  0  0  0  0  0  0  0
  2  1  1  0
  3  2  1  0
  4  3  2  0
  5  4  1  0
  6  1  1  0
  6  5  2  0
  7  6  1  0
  8  7  1  0
  9  8  2  0
  9  5  1  0
 10  7  1  0
 11 10  2  0
 12 11  1  0
 13 12  2  0
 14 13  1  0
 15 14  2  0
 15 10  1  0
 16 14  1  0
 18 17  2  0
 19 18  1  0
 19  1  1  0
 20 19  2  0
 21 20  1  0
 22 21  2  0
 22 17  1  0
 24 17  1  0
 24 23  1  0
 25 22  1  0
 26 25  1  0
 27  9  1  0
 28 27  2  0
 29 27  1  0
 30  3  1  0
  1 31  1  6
  2 32  1  0
  2 33  1  0
  8 34  1  0
 11 35  1  0
 12 36  1  0
 13 37  1  0
 15 38  1  0
 18 39  1  0
 20 40  1  0
 21 41  1  0
 23 42  1  0
 23 43  1  0
 23 44  1  0
 26 45  1  0
 26 46  1  0
 26 47  1  0
 30 48  1  0
M  CHG  1  29  -1
M  END
$$$$
=
     RDKit          3D

 30 31  0  0  0  0  0  0  0  0999 V2000
   17.0100   16.0800    4.7780 C   0  0  0  0  0  0  0  0  0  0  0  0
   15.6500   16.0110    5.0350 C   0  0  0  0  0  0  0  0  0  0  0  0
   14.9230   14.9710    4.4640 C   0  0  0  0  0  0  0  0  0  0  0  0
   15.5680   14.0310    3.6520 C   0  0  0  0  0  0  0  0  0  0  0  0
   16.9340   14.1950    3.4600 C   0  0  0  0  0  0  0  0  0  0  0  0
   17.6770   15.1980    4.0030 N   0  0  0  0  0  0  0  0  0  0  0  0
   14.8330   12.8880    3.0100 C   0  0  0  0  0  0  0  0  0  0  0  0
   15.5310   12.0400    2.3710 O   0  0  0  0  0  0  0  0  0  0  0  0
   13.5720   12.8590    3.1570 O   0  0  0  0  0  1  0  0  0  0  0  0
   17.6880   17.1300    5.3680 O   0  0  0  0  0  0  0  0  0  0  0  0
   18.8840   17.4810    4.6690 C   0  0  0  0  0  0  0  0  0  0  0  0
   20.5750   15.0400    6.6380 C   0  0  0  0  0  0  0  0  0  0  0  0
   20.8990   16.1060    5.6120 C   0  0  2  0  0  0  0  0  0  0  0  0
   22.1220   17.0080    5.9170 C   0  0  0  0  0  0  0  0  0  0  0  0
   21.3330   18.1740    5.2880 C   0  0  0  0  0  0  0  0  0  0  0  0
   20.0370   17.4050    5.6600 C   0  0  1  0  0  0  0  0  0  0  0  0
   15.1579   16.7591    5.6739 H   0  0  0  0  0  0  0  0  0  0  0  0
   13.8422   14.8877    4.6506 H   0  0  0  0  0  0  0  0  0  0  0  0
   17.4521   13.4622    2.8239 H   0  0  0  0  0  0  0  0  0  0  0  0
   19.0545   16.7773    3.8409 H   0  0  0  0  0  0  0  0  0  0  0  0
   18.8022   18.4945    4.2493 H   0  0  0  0  0  0  0  0  0  0  0  0
   20.7009   15.4541    7.6493 H   0  0  0  0  0  0  0  0  0  0  0  0
   19.5351   14.7070    6.5049 H   0  0  0  0  0  0  0  0  0  0  0  0
   21.2537   14.1847    6.5049 H   0  0  0  0  0  0  0  0  0  0  0  0
   20.8775   15.4266    4.7472 H   0  0  0  0  0  0  0  0  0  0  0  0
   22.3465   17.1303    6.9869 H   0  0  0  0  0  0  0  0  0  0  0  0
   23.1345   16.7445    5.5773 H   0  0  0  0  0  0  0  0  0  0  0  0
   21.4562   19.1402    5.7991 H   0  0  0  0  0  0  0  0  0  0  0  0
   21.5279   18.5184    4.2616 H   0  0  0  0  0  0  0  0  0  0  0  0
   19.4357   17.6793    6.5393 H   0  0  0  0  0  0  0  0  0  0  0  0
  2  1  2  0
  3  2  1  0
  4  3  2  0
  5  4  1  0
  6  5  2  0
  6  1  1  0
  7  4  1  0
  8  7  2  0
  9  7  1  0
 10  1  1  0
 11 10  1  0
 13 12  1  0
 14 13  1  0
 15 14  1  0
 16 13  1  0
 16 15  1  0
 16 11  1  0
  2 17  1  0
  3 18  1  0
  5 19  1  0
 11 20  1  0
 11 21  1  0
 12 22  1  0
 12 23  1  0
 12 24  1  0
 13 25  1  6
 14 26  1  0
 14 27  1  0
 15 28  1  0
 15 29  1  0
 16 30  1  1
M  CHG  1   9  -1
M  END
$$$$
=
     RDKit          3D

 34 34  0  0  0  0  0  0  0  0999 V2000
   19.0920   15.2080    4.8760 C   0  0  0  0  0  0  0  0  0  0  0  0
   19.4520   14.7030    5.9420 O   0  0  0  0  0  0  0  0  0  0  0  0
   17.6370   15.2170    4.5610 C   0  0  0  0  0  0  0  0  0  0  0  0
   16.7770   16.1800    5.1330 C   0  0  0  0  0  0  0  0  0  0  0  0
   17.2500   17.2370    6.0910 C   0  0  0  0  0  0  0  0  0  0  0  0
   15.4200   16.1690    4.7750 C   0  0  0  0  0  0  0  0  0  0  0  0
   14.9130   15.1950    3.9170 C   0  0  0  0  0  0  0  0  0  0  0  0
   15.7560   14.2130    3.4010 C   0  0  0  0  0  0  0  0  0  0  0  0
   17.1250   14.2120    3.7090 C   0  0  0  0  0  0  0  0  0  0  0  0
   17.9860   13.1080    3.1550 C   0  0  0  0  0  0  0  0  0  0  0  0
   20.0970   15.8580    3.9320 C   0  0  0  0  0  0  0  0  0  0  0  0
   19.5300   17.4850    2.0750 C   0  0  0  0  0  0  0  0  0  0  0  0
   19.8720   17.3350    3.5620 C   0  0  2  0  0  0  0  0  0  0  0  0
   21.1350   18.1440    3.9020 C   0  0  0  0  0  0  0  0  0  0  0  0
   21.2960   18.3420    5.4100 C   0  0  0  0  0  0  0  0  0  0  0  0
   20.3260   18.9120    5.9810 O   0  0  0  0  0  0  0  0  0  0  0  0
   22.3870   17.9250    5.8910 O   0  0  0  0  0  1  0  0  0  0  0  0
   17.0954   16.8915    7.1238 H   0  0  0  0  0  0  0  0  0  0  0  0
   18.3202   17.4297    5.9252 H   0  0  0  0  0  0  0  0  0  0  0  0
   16.6806   18.1634    5.9252 H   0  0  0  0  0  0  0  0  0  0  0  0
   14.7469   16.9403    5.1775 H   0  0  0  0  0  0  0  0  0  0  0  0
   13.8467   15.2015    3.6470 H   0  0  0  0  0  0  0  0  0  0  0  0
   15.3444   13.4310    2.7459 H   0  0  0  0  0  0  0  0  0  0  0  0
   18.4303   12.5383    3.9844 H   0  0  0  0  0  0  0  0  0  0  0  0
   17.3701   12.4373    2.5379 H   0  0  0  0  0  0  0  0  0  0  0  0
   18.7866   13.5419    2.5379 H   0  0  0  0  0  0  0  0  0  0  0  0
   21.0879   15.7838    4.4038 H   0  0  0  0  0  0  0  0  0  0  0  0
   19.9851   15.3114    2.9840 H   0  0  0  0  0  0  0  0  0  0  0  0
   18.5271   17.9249    1.9720 H   0  0  0  0  0  0  0  0  0  0  0  0
   20.2695   18.1414    1.5931 H   0  0  0  0  0  0  0  0  0  0  0  0
   19.5480   16.4964    1.5931 H   0  0  0  0  0  0  0  0  0  0  0  0
   19.0208   17.7189    4.1434 H   0  0  0  0  0  0  0  0  0  0  0  0
   22.0152   17.6077    3.5177 H   0  0  0  0  0  0  0  0  0  0  0  0
   21.0406   19.1359    3.4359 H   0  0  0  0  0  0  0  0  0  0  0  0
  2  1  2  0
  3  1  1  0
  4  3  2  0
  5  4  1  0
  6  4  1  0
  7  6  2  0
  8  7  1  0
  9  8  2  0
  9  3  1  0
 10  9  1  0
 11  1  1  0
 13 11  1  0
 13 12  1  0
 14 13  1  0
 15 14  1  0
 16 15  2  0
 17 15  1  0
  5 18  1  0
  5 19  1  0
  5 20  1  0
  6 21  1  0
  7 22  1  0
  8 23  1  0
 10 24  1  0
 10 25  1  0
 10 26  1  0
 11 27  1  0
 11 28  1  0
 12 29  1  0
 12 30  1  0
 12 31  1  0
 13 32  1  1
 14 33  1  0
 14 34  1  0
M  CHG  1  17  -1
M  END
$$$$
=
     RDKit          3D

 37 38  0  0  0  0  0  0  0  0999 V2000
   15.8600   14.6750    4.0430 C   0  0  0  0  0  0  0  0  0  0  0  0
   14.6600   15.1720    4.5670 C   0  0  0  0  0  0  0  0  0  0  0  0
   13.4380   14.5680    4.2450 C   0  0  0  0  0  0  0  0  0  0  0  0
   13.3920   13.4560    3.3940 C   0  0  0  0  0  0  0  0  0  0  0  0
   14.5980   12.9470    2.8940 C   0  0  0  0  0  0  0  0  0  0  0  0
   15.8200   13.5470    3.2200 C   0  0  0  0  0  0  0  0  0  0  0  0
   12.1110   12.8460    3.0430 C   0  0  0  0  0  0  0  0  0  0  0  0
   10.8100   13.2900    3.1900 C   0  0  0  0  0  0  0  0  0  0  0  0
   10.0040   12.2720    2.6520 C   0  0  0  0  0  0  0  0  0  0  0  0
   10.7220   11.2520    2.1790 N   0  0  0  0  0  0  0  0  0  0  0  0
   11.9930   11.6260    2.4210 N   0  0  0  0  0  0  0  0  0  0  0  0
   17.1270   16.2300    5.2800 O   0  0  0  0  0  0  0  0  0  0  0  0
   17.1340   15.3590    4.4120 C   0  0  0  0  0  0  0  0  0  0  0  0
   18.2680   14.9800    3.7320 N   0  0  0  0  0  0  0  0  0  0  0  0
   19.5320   15.6470    3.9350 C   0  0  0  0  0  0  0  0  0  0  0  0
   19.6580   16.9160    3.0940 C   0  0  0  0  0  0  0  0  0  0  0  0
   20.5940   17.9610    3.7250 C   0  0  0  0  0  0  0  0  0  0  0  0
   20.6560   17.8640    5.2490 C   0  0  0  0  0  0  0  0  0  0  0  0
   22.0190   17.4970    5.8420 C   0  0  0  0  0  0  0  0  0  0  0  0
   22.0310   16.5300    6.6560 O   0  0  0  0  0  0  0  0  0  0  0  0
   22.9790   18.2140    5.4460 O   0  0  0  0  0  1  0  0  0  0  0  0
   14.6774   16.0441    5.2371 H   0  0  0  0  0  0  0  0  0  0  0  0
   12.5045   14.9710    4.6647 H   0  0  0  0  0  0  0  0  0  0  0  0
   14.5843   12.0648    2.2370 H   0  0  0  0  0  0  0  0  0  0  0  0
   16.7566   13.1267    2.8248 H   0  0  0  0  0  0  0  0  0  0  0  0
   10.4762   14.2394    3.6342 H   0  0  0  0  0  0  0  0  0  0  0  0
    8.9051   12.3118    2.6241 H   0  0  0  0  0  0  0  0  0  0  0  0
   12.8056   11.0483    2.1625 H   0  0  0  0  0  0  0  0  0  0  0  0
   18.2139   14.2005    3.0609 H   0  0  0  0  0  0  0  0  0  0  0  0
   19.6236   15.9160    4.9977 H   0  0  0  0  0  0  0  0  0  0  0  0
   20.3308   14.9569    3.6257 H   0  0  0  0  0  0  0  0  0  0  0  0
   20.0526   16.6434    2.1041 H   0  0  0  0  0  0  0  0  0  0  0  0
   18.6573   17.3675    3.0252 H   0  0  0  0  0  0  0  0  0  0  0  0
   21.6070   17.8126    3.3228 H   0  0  0  0  0  0  0  0  0  0  0  0
   20.1943   18.9547    3.4745 H   0  0  0  0  0  0  0  0  0  0  0  0
   20.3614   18.8405    5.6609 H   0  0  0  0  0  0  0  0  0  0  0  0
   19.9814   17.0391    5.5219 H   0  0  0  0  0  0  0  0  0  0  0  0
  2  1  2  0
  3  2  1  0
  4  3  2  0
  5  4  1  0
  6  5  2  0
  6  1  1  0
  7  4  1  0
  8  7  2  0
  9  8  1  0
 10  9  2  0
 11 10  1  0
 11  7  1  0
 13  1  1  0
 13 12  2  0
 14 13  1  0
 15 14  1  0
 16 15  1  0
 17 16  1  0
 18 17  1  0
 19 18  1  0
 20 19  2  0
 21 19  1  0
  2 22  1  0
  3 23  1  0
  5 24  1  0
  6 25  1  0
  8 26  1  0
  9 27  1  0
 11 28  1  0
 14 29  1  0
 15 30  1  0
 15 31  1  0
 16 32  1  0
 16 33  1  0
 17 34  1  0
 17 35  1  0
 18 36  1  0
 18 37  1  0
M  CHG  1  21  -1
M  END
$$$$
=
     RDKit          3D

 45 47  0  0  0  0  0  0  0  0999 V2000
   26.3740   25.1480   11.6930 C   0  0  0  0  0  0  0  0  0  0  0  0
   25.2370   24.6470   11.0800 C   0  0  0  0  0  0  0  0  0  0  0  0
   24.1390   24.8930   11.9210 C   0  0  0  0  0  0  0  0  0  0  0  0
   24.6220   25.5530   13.0370 C   0  0  0  0  0  0  0  0  0  0  0  0
   26.0040   25.7000   12.9190 N   0  0  0  0  0  0  0  0  0  0  0  0
   23.7580   26.1030   14.1290 C   0  0  0  0  0  0  0  0  0  0  0  0
   22.2990   26.3130   13.6290 C   0  0  0  0  0  0  0  0  0  0  0  0
   21.7960   25.0620   12.8610 C   0  0  0  0  0  0  0  0  0  0  0  0
   22.7260   24.6080   11.7380 C   0  0  0  0  0  0  0  0  0  0  0  0
   22.2870   23.9810   10.7760 O   0  0  0  0  0  0  0  0  0  0  0  0
   21.3890   26.5410   14.8510 C   0  0  0  0  0  0  0  0  0  0  0  0
   22.2080   27.5630   12.7300 C   0  0  0  0  0  0  0  0  0  0  0  0
   26.8520   26.2970   13.8990 C   0  0  0  0  0  0  0  0  0  0  0  0
   27.1760   25.5920   15.0690 C   0  0  0  0  0  0  0  0  0  0  0  0
   27.9770   26.1830   16.0490 C   0  0  0  0  0  0  0  0  0  0  0  0
   28.4610   27.4780   15.8540 C   0  0  0  0  0  0  0  0  0  0  0  0
   28.1680   28.1790   14.6820 C   0  0  0  0  0  0  0  0  0  0  0  0
   27.3550   27.5890   13.7130 C   0  0  0  0  0  0  0  0  0  0  0  0
   29.4290   28.2620   17.1110 S   0  0  0  0  0  6  0  0  0  0  0  0
   28.7390   29.4560   17.5510 O   0  0  0  0  0  0  0  0  0  0  0  0
   29.9020   27.2580   18.0310 O   0  0  0  0  0  0  0  0  0  0  0  0
   30.7480   28.8320   16.2280 N   0  0  0  0  0  0  0  0  0  0  0  0
   27.7840   25.0210   11.1620 C   0  0  0  0  0  0  0  0  0  0  0  0
   28.3380   22.7610   10.6760 O   0  0  0  0  0  1  0  0  0  0  0  0
   28.4230   23.6720   11.5490 C   0  0  0  0  0  0  0  0  0  0  0  0
   28.9240   23.6210   12.7110 O   0  0  0  0  0  0  0  0  0  0  0  0
   25.2004   24.1432   10.1028 H   0  0  0  0  0  0  0  0  0  0  0  0
   23.7516   25.3978   14.9732 H   0  0  0  0  0  0  0  0  0  0  0  0
   24.1653   27.0750   14.4441 H   0  0  0  0  0  0  0  0  0  0  0  0
   21.6903   24.2349   13.5784 H   0  0  0  0  0  0  0  0  0  0  0  0
   20.8408   25.3393   12.3911 H   0  0  0  0  0  0  0  0  0  0  0  0
   21.9704   26.3953   15.7734 H   0  0  0  0  0  0  0  0  0  0  0  0
   20.9917   27.5664   14.8261 H   0  0  0  0  0  0  0  0  0  0  0  0
   20.5551   25.8240   14.8261 H   0  0  0  0  0  0  0  0  0  0  0  0
   22.1425   28.4630   13.3590 H   0  0  0  0  0  0  0  0  0  0  0  0
   23.1041   27.6239   12.0949 H   0  0  0  0  0  0  0  0  0  0  0  0
   21.3125   27.4935   12.0949 H   0  0  0  0  0  0  0  0  0  0  0  0
   26.7974   24.5695   15.2147 H   0  0  0  0  0  0  0  0  0  0  0  0
   28.2248   25.6318   16.9681 H   0  0  0  0  0  0  0  0  0  0  0  0
   28.5750   29.1886   14.5238 H   0  0  0  0  0  0  0  0  0  0  0  0
   27.1079   28.1442   12.7961 H   0  0  0  0  0  0  0  0  0  0  0  0
   31.4832   29.1497   16.8756 H   0  0  0  0  0  0  0  0  0  0  0  0
   31.1168   28.0752   15.6346 H   0  0  0  0  0  0  0  0  0  0  0  0
   27.7599   25.1018   10.0652 H   0  0  0  0  0  0  0  0  0  0  0  0
   28.3896   25.8254   11.6049 H   0  0  0  0  0  0  0  0  0  0  0  0
  2  1  2  0
  3  2  1  0
  4  3  2  0
  5  4  1  0
  5  1  1  0
  6  4  1  0
  7  6  1  0
  8  7  1  0
  9  8  1  0
  9  3  1  0
 10  9  2  0
 11  7  1  0
 12  7  1  0
 13  5  1  0
 14 13  2  0
 15 14  1  0
 16 15  2  0
 17 16  1  0
 18 13  1  0
 18 17  2  0
 19 16  1  0
 20 19  2  0
 21 19  2  0
 22 19  1  0
 23  1  1  0
 25 24  1  0
 25 23  1  0
 26 25  2  0
  2 27  1  0
  6 28  1  0
  6 29  1  0
  8 30  1  0
  8 31  1  0
 11 32  1  0
 11 33  1  0
 11 34  1  0
 12 35  1  0
 12 36  1  0
 12 37  1  0
 14 38  1  0
 15 39  1  0
 17 40  1  0
 18 41  1  0
 22 42  1  0
 22 43  1  0
 23 44  1  0
 23 45  1  0
M  CHG  1  24  -1
M  END
$$$$
=
     RDKit          3D

 32 34  0  0  0  0  0  0  0  0999 V2000
   18.0300   16.7370    4.5600 C   0  0  0  0  0  0  0  0  0  0  0  0
   17.1450   16.9490    5.5800 N   0  0  0  0  0  0  0  0  0  0  0  0
   16.0370   16.1860    5.5220 N   0  0  0  0  0  0  0  0  0  0  0  0
   16.2210   15.4220    4.4300 C   0  0  0  0  0  0  0  0  0  0  0  0
   17.4550   15.7480    3.7990 C   0  0  0  0  0  0  0  0  0  0  0  0
   15.2240   14.4250    4.0200 C   0  0  0  0  0  0  0  0  0  0  0  0
   13.8920   14.5470    4.4240 C   0  0  0  0  0  0  0  0  0  0  0  0
   12.9780   13.5910    4.0160 C   0  0  0  0  0  0  0  0  0  0  0  0
   13.2930   12.5320    3.2410 N   0  0  0  0  0  0  0  0  0  0  0  0
   14.5850   12.4280    2.8640 C   0  0  0  0  0  0  0  0  0  0  0  0
   15.5730   13.3330    3.2210 C   0  0  0  0  0  0  0  0  0  0  0  0
   21.2420   18.4650    5.0970 C   0  0  1  0  0  0  0  0  0  0  0  0
   21.2590   18.1280    3.6140 C   0  0  0  0  0  0  0  0  0  0  0  0
   20.2240   17.0210    3.4890 C   0  0  0  0  0  0  0  0  0  0  0  0
   19.1830   17.4420    4.4280 N   0  0  0  0  0  0  0  0  0  0  0  0
   19.8220   18.1400    5.5630 C   0  0  0  0  0  0  0  0  0  0  0  0
   21.6910   16.6460    6.5510 O   0  0  0  0  0  1  0  0  0  0  0  0
   22.1780   17.6730    6.0050 C   0  0  0  0  0  0  0  0  0  0  0  0
   23.3520   18.1380    6.0790 O   0  0  0  0  0  0  0  0  0  0  0  0
   17.3117   17.6349    6.3301 H   0  0  0  0  0  0  0  0  0  0  0  0
   17.8664   15.2974    2.8837 H   0  0  0  0  0  0  0  0  0  0  0  0
   13.5748   15.3894    5.0562 H   0  0  0  0  0  0  0  0  0  0  0  0
   11.9334   13.7009    4.3427 H   0  0  0  0  0  0  0  0  0  0  0  0
   14.8717   11.5725    2.2348 H   0  0  0  0  0  0  0  0  0  0  0  0
   16.6103   13.1942    2.8822 H   0  0  0  0  0  0  0  0  0  0  0  0
   21.5751   19.5101    5.1795 H   0  0  0  0  0  0  0  0  0  0  0  0
   20.9750   19.0017    3.0091 H   0  0  0  0  0  0  0  0  0  0  0  0
   22.2540   17.8264    3.2548 H   0  0  0  0  0  0  0  0  0  0  0  0
   19.8312   16.9600    2.4634 H   0  0  0  0  0  0  0  0  0  0  0  0
   20.6277   16.0211    3.7064 H   0  0  0  0  0  0  0  0  0  0  0  0
   19.2754   19.0639    5.8028 H   0  0  0  0  0  0  0  0  0  0  0  0
   19.8230   17.5223    6.4732 H   0  0  0  0  0  0  0  0  0  0  0  0
  2  1  1  0
  3  2  1  0
  4  3  2  0
  5  4  1  0
  5  1  2  0
  6  4  1  0
  7  6  2  0
  8  7  1  0
  9  8  2  0
 10  9  1  0
 11 10  2  0
 11  6  1  0
 13 12  1  0
 14 13  1  0
 15 14  1  0
 15  1  1  0
 16 15  1  0
 16 12  1  0
 18 12  1  0
 18 17  1  0
 19 18  2  0
  2 20  1  0
  5 21  1  0
  7 22  1  0
  8 23  1  0
 10 24  1  0
 11 25  1  0
 12 26  1  6
 13 27  1  0
 13 28  1  0
 14 29  1  0
 14 30  1  0
 16 31  1  0
 16 32  1  0
M  CHG  1  17  -1
M  END
$$$$
=
     RDKit          3D

 27 28  0  0  0  0  0  0  0  0999 V2000
   18.2730   14.7220    3.7840 C   0  0  0  0  0  0  0  0  0  0  0  0
   18.9980   14.5320    4.9690 C   0  0  0  0  0  0  0  0  0  0  0  0
   20.0680   15.3780    5.3150 C   0  0  0  0  0  0  0  0  0  0  0  0
   20.4060   16.4260    4.4440 C   0  0  0  0  0  0  0  0  0  0  0  0
   19.7050   16.6320    3.2500 C   0  0  0  0  0  0  0  0  0  0  0  0
   18.6320   15.7780    2.9320 C   0  0  0  0  0  0  0  0  0  0  0  0
   13.7240   12.7210    3.1040 C   0  0  0  0  0  0  0  0  0  0  0  0
   15.1770   12.9860    3.1600 C   0  0  0  0  0  0  0  0  0  0  0  0
   16.0700   12.0510    2.7180 N   0  0  0  0  0  0  0  0  0  0  0  0
   17.2570   12.5920    2.9040 C   0  0  0  0  0  0  0  0  0  0  0  0
   17.1890   13.8560    3.4540 N   0  0  0  0  0  0  0  0  0  0  0  0
   15.8400   14.1040    3.6170 C   0  0  0  0  0  0  0  0  0  0  0  0
   20.0670   17.7770    2.3410 C   0  0  0  0  0  0  0  0  0  0  0  0
   19.0650   18.7000    2.2280 F   0  0  0  0  0  0  0  0  0  0  0  0
   20.3580   17.4040    1.0640 F   0  0  0  0  0  0  0  0  0  0  0  0
   21.1500   18.4760    2.7830 F   0  0  0  0  0  0  0  0  0  0  0  0
   20.8380   15.1630    6.6050 C   0  0  0  0  0  0  0  0  0  0  0  0
   21.5950   16.1090    6.9850 O   0  0  0  0  0  0  0  0  0  0  0  0
   20.6620   14.0560    7.2010 O   0  0  0  0  0  1  0  0  0  0  0  0
   18.7250   13.7054    5.6414 H   0  0  0  0  0  0  0  0  0  0  0  0
   21.2372   17.0977    4.7047 H   0  0  0  0  0  0  0  0  0  0  0  0
   18.0668   15.9407    2.0024 H   0  0  0  0  0  0  0  0  0  0  0  0
   13.3249   12.6482    4.1265 H   0  0  0  0  0  0  0  0  0  0  0  0
   13.2217   13.5424    2.5719 H   0  0  0  0  0  0  0  0  0  0  0  0
   13.5440   11.7752    2.5719 H   0  0  0  0  0  0  0  0  0  0  0  0
   18.2016   12.0897    2.6482 H   0  0  0  0  0  0  0  0  0  0  0  0
   15.3842   15.0157    4.0307 H   0  0  0  0  0  0  0  0  0  0  0  0
  2  1  2  0
  3  2  1  0
  4  3  2  0
  5  4  1  0
  6  1  1  0
  6  5  2  0
  8  7  1  0
  9  8  1  0
 10  9  2  0
 11 10  1  0
 11  1  1  0
 12  8  2  0
 12 11  1  0
 13  5  1  0
 14 13  1  0
 15 13  1  0
 16 13  1  0
 17  3  1  0
 18 17  2  0
 19 17  1  0
  2 20  1  0
  4 21  1  0
  6 22  1  0
  7 23  1  0
  7 24  1  0
  7 25  1  0
 10 26  1  0
 12 27  1  0
M  CHG  1  19  -1
M  END
$$$$
=
     RDKit          3D

 47 48  0  0  0  0  0  0  0  0999 V2000
   17.7000   15.0420    3.5440 C   0  0  1  0  0  0  0  0  0  0  0  0
   16.3250   14.6380    4.1480 C   0  0  1  0  0  0  0  0  0  0  0  0
   15.4790   15.8930    4.4320 C   0  0  0  0  0  0  0  0  0  0  0  0
   16.1780   16.8530    5.3970 C   0  0  0  0  0  0  0  0  0  0  0  0
   17.7000   16.7920    5.3190 C   0  0  0  0  0  0  0  0  0  0  0  0
   18.1300   16.3960    3.9880 N   0  0  0  0  0  0  0  0  0  0  0  0
   19.2080   16.9720    3.3390 C   0  0  0  0  0  0  0  0  0  0  0  0
   19.6500   16.5880    2.2630 O   0  0  0  0  0  0  0  0  0  0  0  0
   18.8710   13.0090    3.0250 O   0  0  0  0  0  1  0  0  0  0  0  0
   18.6970   13.8860    3.9230 C   0  0  0  0  0  0  0  0  0  0  0  0
   19.1780   13.9310    5.0950 O   0  0  0  0  0  0  0  0  0  0  0  0
   19.6960   18.0540    4.0070 O   0  0  0  0  0  0  0  0  0  0  0  0
   21.0020   18.0170    4.6270 C   0  0  0  0  0  0  0  0  0  0  0  0
   22.0580   18.7040    3.7550 C   0  0  0  0  0  0  0  0  0  0  0  0
   20.8370   18.8300    5.9220 C   0  0  0  0  0  0  0  0  0  0  0  0
   21.4070   16.5860    5.0020 C   0  0  0  0  0  0  0  0  0  0  0  0
   15.5790   13.6700    3.1990 C   0  0  0  0  0  0  0  0  0  0  0  0
   14.0930   13.5730    3.4700 C   0  0  0  0  0  0  0  0  0  0  0  0
   13.2840   12.7610    2.6630 C   0  0  0  0  0  0  0  0  0  0  0  0
   11.9140   12.6620    2.9070 C   0  0  0  0  0  0  0  0  0  0  0  0
   11.3390   13.3740    3.9580 C   0  0  0  0  0  0  0  0  0  0  0  0
   12.1350   14.1860    4.7660 C   0  0  0  0  0  0  0  0  0  0  0  0
   13.5060   14.2870    4.5220 C   0  0  0  0  0  0  0  0  0  0  0  0
   17.6544   15.1423    2.4495 H   0  0  0  0  0  0  0  0  0  0  0  0
   16.4967   14.1147    5.1002 H   0  0  0  0  0  0  0  0  0  0  0  0
   15.2928   16.4173    3.4831 H   0  0  0  0  0  0  0  0  0  0  0  0
   14.5381   15.5681    4.9002 H   0  0  0  0  0  0  0  0  0  0  0  0
   15.8580   17.8786    5.1608 H   0  0  0  0  0  0  0  0  0  0  0  0
   15.8937   16.5518    6.4160 H   0  0  0  0  0  0  0  0  0  0  0  0
   18.1137   17.7842    5.5520 H   0  0  0  0  0  0  0  0  0  0  0  0
   18.0621   16.0482    6.0440 H   0  0  0  0  0  0  0  0  0  0  0  0
   22.8055   19.1903    4.3991 H   0  0  0  0  0  0  0  0  0  0  0  0
   22.5531   17.9546    3.1199 H   0  0  0  0  0  0  0  0  0  0  0  0
   21.5736   19.4603    3.1199 H   0  0  0  0  0  0  0  0  0  0  0  0
   20.9714   18.1680    6.7902 H   0  0  0  0  0  0  0  0  0  0  0  0
   21.5910   19.6304    5.9510 H   0  0  0  0  0  0  0  0  0  0  0  0
   19.8306   19.2731    5.9510 H   0  0  0  0  0  0  0  0  0  0  0  0
   21.4348   16.4879    6.0973 H   0  0  0  0  0  0  0  0  0  0  0  0
   20.6741   15.8773    4.5888 H   0  0  0  0  0  0  0  0  0  0  0  0
   22.4025   16.3665    4.5888 H   0  0  0  0  0  0  0  0  0  0  0  0
   15.7210   14.0193    2.1656 H   0  0  0  0  0  0  0  0  0  0  0  0
   16.0013   12.6682    3.3666 H   0  0  0  0  0  0  0  0  0  0  0  0
   13.7326   12.1978    1.8314 H   0  0  0  0  0  0  0  0  0  0  0  0
   11.2871   12.0214    2.2693 H   0  0  0  0  0  0  0  0  0  0  0  0
   10.2587   13.2958    4.1502 H   0  0  0  0  0  0  0  0  0  0  0  0
   11.6820   14.7474    5.5964 H   0  0  0  0  0  0  0  0  0  0  0  0
   14.1288   14.9313    5.1600 H   0  0  0  0  0  0  0  0  0  0  0  0
  2  1  1  0
  3  2  1  0
  4  3  1  0
  5  4  1  0
  6  1  1  0
  6  5  1  0
  7  6  1  0
  8  7  2  0
 10  9  1  0
 10  1  1  0
 11 10  2  0
 12  7  1  0
 13 12  1  0
 14 13  1  0
 15 13  1  0
 16 13  1  0
 17  2  1  0
 18 17  1  0
 19 18  2  0
 20 19  1  0
 21 20  2  0
 22 21  1  0
 23 22  2  0
 23 18  1  0
  1 24  1  6
  2 25  1  1
  3 26  1  0
  3 27  1  0
  4 28  1  0
  4 29  1  0
  5 30  1  0
  5 31  1  0
 14 32  1  0
 14 33  1  0
 14 34  1  0
 15 35  1  0
 15 36  1  0
 15 37  1  0
 16 38  1  0
 16 39  1  0
 16 40  1  0
 17 41  1  0
 17 42  1  0
 19 43  1  0
 20 44  1  0
 21 45  1  0
 22 46  1  0
 23 47  1  0
M  CHG  1   9  -1
M  END
$$$$
=
     RDKit          3D

 54 56  0  0  0  0  0  0  0  0999 V2000
   12.4610   11.8820    2.9380 C   0  0  0  0  0  0  0  0  0  0  0  0
   13.3080   12.9630    3.4460 N   0  0  0  0  0  0  0  0  0  0  0  0
   12.8790   13.9690    4.2840 C   0  0  0  0  0  0  0  0  0  0  0  0
   11.3400   14.2490    4.8630 S   0  0  0  0  0  0  0  0  0  0  0  0
   14.2310   15.0160    4.6930 S   0  0  0  0  0  0  0  0  0  0  0  0
   15.3560   14.1030    3.7770 C   0  0  0  0  0  0  0  0  0  0  0  0
   16.6750   14.2770    3.5950 C   0  0  0  0  0  0  0  0  0  0  0  0
   14.6530   12.9590    3.1210 C   0  0  0  0  0  0  0  0  0  0  0  0
   15.2110   12.1460    2.3950 O   0  0  0  0  0  0  0  0  0  0  0  0
   17.6240   15.2800    4.0930 C   0  0  0  0  0  0  0  0  0  0  0  0
   18.8810   15.2540    3.5960 C   0  0  0  0  0  0  0  0  0  0  0  0
   17.1880   16.2880    5.1250 C   0  0  0  0  0  0  0  0  0  0  0  0
   19.9660   16.1650    3.9690 C   0  0  0  0  0  0  0  0  0  0  0  0
   20.1350   17.3750    3.2890 C   0  0  0  0  0  0  0  0  0  0  0  0
   21.1680   18.2430    3.6480 C   0  0  0  0  0  0  0  0  0  0  0  0
   22.0350   17.9060    4.6870 C   0  0  0  0  0  0  0  0  0  0  0  0
   21.8700   16.6990    5.3680 C   0  0  0  0  0  0  0  0  0  0  0  0
   20.8380   15.8300    5.0100 C   0  0  0  0  0  0  0  0  0  0  0  0
   11.3400   12.4180    2.0480 C   0  0  0  0  0  0  0  0  0  0  0  0
   10.1650   11.4440    1.9900 C   0  0  0  0  0  0  0  0  0  0  0  0
    7.7700   11.5230    2.1710 O   0  0  0  0  0  0  0  0  0  0  0  0
    8.8290   12.1390    2.2080 C   0  0  0  0  0  0  0  0  0  0  0  0
    9.0040   13.4920    2.4400 N   0  0  0  0  0  0  0  0  0  0  0  0
    8.0120   14.4650    2.6870 C   0  0  0  0  0  0  0  0  0  0  0  0
    7.3330   14.6050    3.8960 C   0  0  0  0  0  0  0  0  0  0  0  0
    6.3600   15.6040    4.0500 C   0  0  0  0  0  0  0  0  0  0  0  0
    6.0440   16.4820    3.0000 C   0  0  0  0  0  0  0  0  0  0  0  0
    6.7360   16.3250    1.7940 C   0  0  0  0  0  0  0  0  0  0  0  0
    7.7060   15.3340    1.6340 C   0  0  0  0  0  0  0  0  0  0  0  0
    4.9950   17.5530    3.1740 C   0  0  0  0  0  0  0  0  0  0  0  0
    5.4150   18.7550    3.0640 O   0  0  0  0  0  0  0  0  0  0  0  0
    3.8030   17.1940    3.4100 O   0  0  0  0  0  1  0  0  0  0  0  0
    6.4970   17.1340    0.7120 O   0  0  0  0  0  0  0  0  0  0  0  0
   13.0811   11.1876    2.3521 H   0  0  0  0  0  0  0  0  0  0  0  0
   12.0036   11.3699    3.7974 H   0  0  0  0  0  0  0  0  0  0  0  0
   17.1349   13.5184    2.9446 H   0  0  0  0  0  0  0  0  0  0  0  0
   19.1089   14.4818    2.8465 H   0  0  0  0  0  0  0  0  0  0  0  0
   17.3639   15.8814    6.1319 H   0  0  0  0  0  0  0  0  0  0  0  0
   17.7653   17.2157    4.9982 H   0  0  0  0  0  0  0  0  0  0  0  0
   16.1166   16.5026    4.9982 H   0  0  0  0  0  0  0  0  0  0  0  0
   19.4525   17.6437    2.4693 H   0  0  0  0  0  0  0  0  0  0  0  0
   21.2981   19.1939    3.1106 H   0  0  0  0  0  0  0  0  0  0  0  0
   22.8481   18.5908    4.9695 H   0  0  0  0  0  0  0  0  0  0  0  0
   22.5537   16.4323    6.1874 H   0  0  0  0  0  0  0  0  0  0  0  0
   20.7102   14.8791    5.5480 H   0  0  0  0  0  0  0  0  0  0  0  0
   10.9895   13.3789    2.4526 H   0  0  0  0  0  0  0  0  0  0  0  0
   11.7358   12.5462    1.0297 H   0  0  0  0  0  0  0  0  0  0  0  0
   10.1551   10.9597    1.0024 H   0  0  0  0  0  0  0  0  0  0  0  0
   10.2974   10.7077    2.7965 H   0  0  0  0  0  0  0  0  0  0  0  0
    9.9769   13.8302    2.4314 H   0  0  0  0  0  0  0  0  0  0  0  0
    7.5610   13.9291    4.7334 H   0  0  0  0  0  0  0  0  0  0  0  0
    5.8345   15.7016    5.0114 H   0  0  0  0  0  0  0  0  0  0  0  0
    8.2333   15.2356    0.6737 H   0  0  0  0  0  0  0  0  0  0  0  0
    7.0025   16.9988   -0.1284 H   0  0  0  0  0  0  0  0  0  0  0  0
  2  1  1  0
  3  2  1  0
  4  3  2  0
  5  3  1  0
  6  5  1  0
  7  6  2  0
  8  6  1  0
  8  2  1  0
  9  8  2  0
 10  7  1  0
 11 10  2  0
 12 10  1  0
 13 11  1  0
 14 13  2  0
 15 14  1  0
 16 15  2  0
 17 16  1  0
 18 13  1  0
 18 17  2  0
 19  1  1  0
 20 19  1  0
 22 21  2  0
 22 20  1  0
 23 22  1  0
 24 23  1  0
 25 24  2  0
 26 25  1  0
 27 26  2  0
 28 27  1  0
 29 28  2  0
 29 24  1  0
 30 27  1  0
 31 30  2  0
 32 30  1  0
 33 28  1  0
  1 34  1  0
  1 35  1  0
  7 36  1  0
 11 37  1  0
 12 38  1  0
 12 39  1  0
 12 40  1  0
 14 41  1  0
 15 42  1  0
 16 43  1  0
 17 44  1  0
 18 45  1  0
 19 46  1  0
 19 47  1  0
 20 48  1  0
 20 49  1  0
 23 50  1  0
 25 51  1  0
 26 52  1  0
 29 53  1  0
 33 54  1  0
M  CHG  1  32  -1
M  END
$$$$
=
     RDKit          3D

 23 23  0  0  0  0  0  0  0  0999 V2000
   18.2130   16.4470    5.4620 C   0  0  0  0  0  0  0  0  0  0  0  0
   17.0220   16.5240    6.1860 C   0  0  0  0  0  0  0  0  0  0  0  0
   15.8580   15.9090    5.7030 C   0  0  0  0  0  0  0  0  0  0  0  0
   15.8450   15.2040    4.4880 C   0  0  0  0  0  0  0  0  0  0  0  0
   17.0350   15.1260    3.7540 C   0  0  0  0  0  0  0  0  0  0  0  0
   18.1900   15.7390    4.2520 C   0  0  0  0  0  0  0  0  0  0  0  0
   19.4050   15.6160    3.4770 N   0  0  0  0  0  4  0  0  0  0  0  0
   20.2270   14.7620    3.8400 O   0  0  0  0  0  0  0  0  0  0  0  0
   19.5350   16.3690    2.5010 O   0  0  0  0  0  1  0  0  0  0  0  0
   14.5770   14.5440    3.9860 C   0  0  0  0  0  0  0  0  0  0  0  0
   14.7160   13.4890    3.2950 O   0  0  0  0  0  0  0  0  0  0  0  0
   13.4830   15.1060    4.2950 O   0  0  0  0  0  1  0  0  0  0  0  0
   19.4010   17.0120    5.8400 O   0  0  0  0  0  0  0  0  0  0  0  0
   19.7190   18.3330    5.3920 C   0  0  0  0  0  0  0  0  0  0  0  0
   21.4020   18.6100    3.7710 F   0  0  0  0  0  0  0  0  0  0  0  0
   21.2070   18.5050    5.1120 C   0  0  0  0  0  0  0  0  0  0  0  0
   21.8820   17.3910    5.5050 F   0  0  0  0  0  0  0  0  0  0  0  0
   16.9964   17.0701    7.1406 H   0  0  0  0  0  0  0  0  0  0  0  0
   14.9310   15.9805    6.2908 H   0  0  0  0  0  0  0  0  0  0  0  0
   17.0615   14.5879    2.7950 H   0  0  0  0  0  0  0  0  0  0  0  0
   19.1589   18.5377    4.4676 H   0  0  0  0  0  0  0  0  0  0  0  0
   19.4432   19.0357    6.1921 H   0  0  0  0  0  0  0  0  0  0  0  0
   21.5591   19.3980    5.6492 H   0  0  0  0  0  0  0  0  0  0  0  0
  2  1  2  0
  3  2  1  0
  4  3  2  0
  5  4  1  0
  6  5  2  0
  6  1  1  0
  7  6  1  0
  8  7  2  0
  9  7  1  0
 10  4  1  0
 11 10  2  0
 12 10  1  0
 13  1  1  0
 14 13  1  0
 16 15  1  0
 16 14  1  0
 17 16  1  0
  2 18  1  0
  3 19  1  0
  5 20  1  0
 14 21  1  0
 14 22  1  0
 16 23  1  0
M  CHG  3   7   1   9  -1  12  -1
M  END
$$$$
=
     RDKit          3D

 15 15  0  0  0  0  0  0  0  0999 V2000
   19.5890   14.6430    5.7530 C   0  0  1  0  0  0  0  0  0  0  0  0
   18.4020   15.3420    6.4700 C   0  0  0  0  0  0  0  0  0  0  0  0
   18.1910   16.1730    5.1920 C   0  0  0  0  0  0  0  0  0  0  0  0
   18.9040   15.0430    4.4160 C   0  0  1  0  0  0  0  0  0  0  0  0
   21.7520   15.3850    5.0870 O   0  0  0  0  0  1  0  0  0  0  0  0
   20.9370   15.2580    6.0590 C   0  0  0  0  0  0  0  0  0  0  0  0
   21.1580   15.5980    7.2610 O   0  0  0  0  0  0  0  0  0  0  0  0
   19.7240   15.4440    3.3010 O   0  0  0  0  0  0  0  0  0  0  0  0
   19.8832   13.5991    5.9367 H   0  0  0  0  0  0  0  0  0  0  0  0
   17.5652   14.6750    6.7247 H   0  0  0  0  0  0  0  0  0  0  0  0
   18.5257   15.8206    7.4527 H   0  0  0  0  0  0  0  0  0  0  0  0
   17.1379   16.3262    4.9137 H   0  0  0  0  0  0  0  0  0  0  0  0
   18.5227   17.2195    5.1225 H   0  0  0  0  0  0  0  0  0  0  0  0
   18.3564   14.2916    3.8282 H   0  0  0  0  0  0  0  0  0  0  0  0
   20.5606   15.8531    3.6369 H   0  0  0  0  0  0  0  0  0  0  0  0
  2  1  1  0
  3  2  1  0
  4  3  1  0
  4  1  1  0
  6  5  1  0
  6  1  1  0
  7  6  2  0
  8  4  1  0
  1  9  1  1
  2 10  1  0
  2 11  1  0
  3 12  1  0
  3 13  1  0
  4 14  1  6
  8 15  1  0
M  CHG  1   5  -1
M  END
$$$$
=
     RDKit          3D

 22 22  0  0  0  0  0  0  0  0999 V2000
   16.2730   15.7180    6.5110 O   0  0  0  0  0  0  0  0  0  0  0  0
   16.8200   15.9630    5.4350 C   0  0  0  0  0  0  0  0  0  0  0  0
   16.4590   15.4700    4.2150 N   0  0  0  0  0  0  0  0  0  0  0  0
   15.4100   14.5880    3.8970 C   0  0  0  0  0  0  0  0  0  0  0  0
   15.7490   13.4310    3.1830 C   0  0  0  0  0  0  0  0  0  0  0  0
   14.7740   12.4990    2.8240 C   0  0  0  0  0  0  0  0  0  0  0  0
   13.4440   12.7160    3.1750 C   0  0  0  0  0  0  0  0  0  0  0  0
   13.0950   13.8630    3.8850 C   0  0  0  0  0  0  0  0  0  0  0  0
   14.0740   14.7960    4.2440 C   0  0  0  0  0  0  0  0  0  0  0  0
   17.9930   16.8940    5.4700 C   0  0  0  0  0  0  0  0  0  0  0  0
   19.2670   16.8140    5.0550 C   0  0  0  0  0  0  0  0  0  0  0  0
   20.0540   15.7100    4.3610 C   0  0  0  0  0  0  0  0  0  0  0  0
   19.4940   15.1650    3.3720 O   0  0  0  0  0  0  0  0  0  0  0  0
   21.1830   15.4820    4.8760 O   0  0  0  0  0  1  0  0  0  0  0  0
   17.0318   15.7862    3.4195 H   0  0  0  0  0  0  0  0  0  0  0  0
   16.7977   13.2548    2.9016 H   0  0  0  0  0  0  0  0  0  0  0  0
   15.0557   11.5946    2.2648 H   0  0  0  0  0  0  0  0  0  0  0  0
   12.6721   11.9849    2.8929 H   0  0  0  0  0  0  0  0  0  0  0  0
   12.0452   14.0358    4.1645 H   0  0  0  0  0  0  0  0  0  0  0  0
   13.7890   15.6993    4.8033 H   0  0  0  0  0  0  0  0  0  0  0  0
   17.7576   17.8596    5.9414 H   0  0  0  0  0  0  0  0  0  0  0  0
   19.8565   17.7210    5.2547 H   0  0  0  0  0  0  0  0  0  0  0  0
  2  1  2  0
  3  2  1  0
  4  3  1  0
  5  4  2  0
  6  5  1  0
  7  6  2  0
  8  7  1  0
  9  8  2  0
  9  4  1  0
 10  2  1  0
 11 10  2  0
 12 11  1  0
 13 12  2  0
 14 12  1  0
  3 15  1  0
  5 16  1  0
  6 17  1  0
  7 18  1  0
  8 19  1  0
  9 20  1  0
 10 21  1  0
 11 22  1  0
M  CHG  1  14  -1
M  END
$$$$
=
     RDKit          3D

 23 24  0  0  0  0  0  0  0  0999 V2000
   18.0550   15.9580    4.4640 S   0  0  0  0  0  6  0  0  0  0  0  0
   17.8770   16.9280    5.5200 O   0  0  0  0  0  0  0  0  0  0  0  0
   18.5430   16.3770    3.1640 O   0  0  0  0  0  0  0  0  0  0  0  0
   16.5300   15.1440    4.1710 C   0  0  0  0  0  0  0  0  0  0  0  0
   15.3150   15.6950    4.6470 C   0  0  0  0  0  0  0  0  0  0  0  0
   14.0570   15.0740    4.4540 C   0  0  0  0  0  0  0  0  0  0  0  0
   13.9090   13.8510    3.7770 C   0  0  0  0  0  0  0  0  0  0  0  0
   15.1090   13.2860    3.3020 C   0  0  0  0  0  0  0  0  0  0  0  0
   16.4140   13.9190    3.4930 C   0  0  0  0  0  0  0  0  0  0  0  0
   17.3280   13.1230    2.9250 N   0  0  0  0  0  0  0  0  0  0  0  0
   16.6420   12.0480    2.3970 O   0  0  0  0  0  0  0  0  0  0  0  0
   15.2830   12.1400    2.6340 N   0  0  0  0  0  0  0  0  0  0  0  0
   19.0120   14.7110    4.9620 N   0  0  0  0  0  0  0  0  0  0  0  0
   19.6670   14.7090    6.2970 C   0  0  0  0  0  0  0  0  0  0  0  0
   21.5700   15.3760    5.0210 O   0  0  0  0  0  1  0  0  0  0  0  0
   21.0490   15.4030    6.1700 C   0  0  0  0  0  0  0  0  0  0  0  0
   21.4760   15.9240    7.2490 O   0  0  0  0  0  0  0  0  0  0  0  0
   15.3503   16.6498    5.1920 H   0  0  0  0  0  0  0  0  0  0  0  0
   13.1583   15.5693    4.8503 H   0  0  0  0  0  0  0  0  0  0  0  0
   12.9302   13.3713    3.6293 H   0  0  0  0  0  0  0  0  0  0  0  0
   18.4258   13.8648    4.9265 H   0  0  0  0  0  0  0  0  0  0  0  0
   19.0419   15.2567    7.0176 H   0  0  0  0  0  0  0  0  0  0  0  0
   19.7960   13.6756    6.6513 H   0  0  0  0  0  0  0  0  0  0  0  0
  2  1  2  0
  3  1  2  0
  4  1  1  0
  5  4  2  0
  6  5  1  0
  7  6  2  0
  8  7  1  0
  9  8  1  0
  9  4  1  0
 10  9  2  0
 11 10  1  0
 12  8  2  0
 12 11  1  0
 13  1  1  0
 14 13  1  0
 16 15  1  0
 16 14  1  0
 17 16  2  0
  5 18  1  0
  6 19  1  0
  7 20  1  0
 13 21  1  0
 14 22  1  0
 14 23  1  0
M  CHG  1  15  -1
M  END
$$$$
=
     RDKit          3D

 48 49  0  0  0  0  0  0  0  0999 V2000
   14.8470   13.8800    3.9180 C   0  0  0  0  0  0  0  0  0  0  0  0
   14.5330   14.6120    5.0680 C   0  0  0  0  0  0  0  0  0  0  0  0
   15.4140   15.5950    5.5210 C   0  0  0  0  0  0  0  0  0  0  0  0
   16.5910   15.8540    4.8110 C   0  0  0  0  0  0  0  0  0  0  0  0
   16.9070   15.1090    3.6720 C   0  0  0  0  0  0  0  0  0  0  0  0
   16.0290   14.1250    3.2150 C   0  0  0  0  0  0  0  0  0  0  0  0
   13.7080   12.6330    3.3460 S   0  0  0  0  0  6  0  0  0  0  0  0
   14.1450   12.2650    2.0140 O   0  0  0  0  0  0  0  0  0  0  0  0
   13.5710   11.6440    4.3910 O   0  0  0  0  0  0  0  0  0  0  0  0
   12.2990   13.5330    3.2000 N   0  0  0  0  0  0  0  0  0  0  0  0
   11.0090   12.8730    3.6590 C   0  0  2  0  0  0  0  0  0  0  0  0
   10.3950   12.1630    2.4090 C   0  0  0  0  0  0  0  0  0  0  0  0
   10.9010   11.0500    2.0980 O   0  0  0  0  0  0  0  0  0  0  0  0
    9.4460   12.8150    1.8680 O   0  0  0  0  0  1  0  0  0  0  0  0
   10.0910   13.9940    4.1610 C   0  0  0  0  0  0  0  0  0  0  0  0
    7.7630   14.3030    5.0510 C   0  0  0  0  0  0  0  0  0  0  0  0
    9.1030   13.5940    5.2760 C   0  0  0  0  0  0  0  0  0  0  0  0
    9.6310   13.9280    6.6720 C   0  0  0  0  0  0  0  0  0  0  0  0
   17.5250   16.7850    5.2130 O   0  0  0  0  0  0  0  0  0  0  0  0
   18.8030   16.3310    5.4560 C   0  0  0  0  0  0  0  0  0  0  0  0
   19.0390   15.3210    6.3950 C   0  0  0  0  0  0  0  0  0  0  0  0
   20.3440   14.9020    6.6520 C   0  0  0  0  0  0  0  0  0  0  0  0
   21.4100   15.5010    5.9830 C   0  0  0  0  0  0  0  0  0  0  0  0
   21.1760   16.5250    5.0630 C   0  0  0  0  0  0  0  0  0  0  0  0
   19.8700   16.9590    4.7960 C   0  0  0  0  0  0  0  0  0  0  0  0
   19.6210   18.0590    3.8060 C   0  0  0  0  0  0  0  0  0  0  0  0
   13.5975   14.4140    5.6118 H   0  0  0  0  0  0  0  0  0  0  0  0
   15.1835   16.1643    6.4335 H   0  0  0  0  0  0  0  0  0  0  0  0
   17.8483   15.2981    3.1352 H   0  0  0  0  0  0  0  0  0  0  0  0
   16.2657   13.5475    2.3092 H   0  0  0  0  0  0  0  0  0  0  0  0
   12.4213   14.3938    3.7522 H   0  0  0  0  0  0  0  0  0  0  0  0
   11.1570   12.1357    4.4618 H   0  0  0  0  0  0  0  0  0  0  0  0
   10.7262   14.8053    4.5461 H   0  0  0  0  0  0  0  0  0  0  0  0
    9.4722   14.2861    3.2997 H   0  0  0  0  0  0  0  0  0  0  0  0
    7.3078   14.5438    6.0230 H   0  0  0  0  0  0  0  0  0  0  0  0
    7.9297   15.2309    4.4842 H   0  0  0  0  0  0  0  0  0  0  0  0
    7.0897   13.6432    4.4842 H   0  0  0  0  0  0  0  0  0  0  0  0
    8.9737   12.5028    5.2260 H   0  0  0  0  0  0  0  0  0  0  0  0
    8.9576   13.5020    7.4303 H   0  0  0  0  0  0  0  0  0  0  0  0
   10.6377   13.5021    6.7949 H   0  0  0  0  0  0  0  0  0  0  0  0
    9.6774   15.0201    6.7949 H   0  0  0  0  0  0  0  0  0  0  0  0
   18.1965   14.8582    6.9297 H   0  0  0  0  0  0  0  0  0  0  0  0
   20.5318   14.1002    7.3813 H   0  0  0  0  0  0  0  0  0  0  0  0
   22.4390   15.1660    6.1804 H   0  0  0  0  0  0  0  0  0  0  0  0
   22.0238   16.9952    4.5432 H   0  0  0  0  0  0  0  0  0  0  0  0
   19.4091   18.9950    4.3435 H   0  0  0  0  0  0  0  0  0  0  0  0
   20.5117   18.1924    3.1744 H   0  0  0  0  0  0  0  0  0  0  0  0
   18.7597   17.7958    3.1744 H   0  0  0  0  0  0  0  0  0  0  0  0
  2  1  2  0
  3  2  1  0
  4  3  2  0
  5  4  1  0
  6  1  1  0
  6  5  2  0
  7  1  1  0
  8  7  2  0
  9  7  2  0
 10  7  1  0
 11 10  1  0
 12 11  1  0
 13 12  2  0
 14 12  1  0
 15 11  1  0
 17 16  1  0
 17 15  1  0
 18 17  1  0
 19  4  1  0
 20 19  1  0
 21 20  2  0
 22 21  1  0
 23 22  2  0
 24 23  1  0
 25 20  1  0
 25 24  2  0
 26 25  1  0
  2 27  1  0
  3 28  1  0
  5 29  1  0
  6 30  1  0
 10 31  1  0
 11 32  1  1
 15 33  1  0
 15 34  1  0
 16 35  1  0
 16 36  1  0
 16 37  1  0
 17 38  1  0
 18 39  1  0
 18 40  1  0
 18 41  1  0
 21 42  1  0
 22 43  1  0
 23 44  1  0
 24 45  1  0
 26 46  1  0
 26 47  1  0
 26 48  1  0
M  CHG  1  14  -1
M  END
$$$$
=
     RDKit          3D

 33 33  0  0  0  0  0  0  0  0999 V2000
   19.1670   16.0480    3.3160 C   0  0  2  0  0  0  0  0  0  0  0  0
   19.6460   15.2370    4.5270 C   0  0  0  0  0  0  0  0  0  0  0  0
   20.9130   15.8240    5.1340 C   0  0  0  0  0  0  0  0  0  0  0  0
   20.6850   17.2490    5.6590 C   0  0  2  0  0  0  0  0  0  0  0  0
   19.5520   17.9820    4.9270 C   0  0  0  0  0  0  0  0  0  0  0  0
   19.4290   17.5540    3.4660 C   0  0  0  0  0  0  0  0  0  0  0  0
   22.0610   17.9430    5.6100 C   0  0  0  0  0  0  0  0  0  0  0  0
   22.1790   18.8950    4.7900 O   0  0  0  0  0  0  0  0  0  0  0  0
   22.9210   17.4580    6.4010 O   0  0  0  0  0  1  0  0  0  0  0  0
   17.7530   15.8590    3.1380 O   0  0  0  0  0  0  0  0  0  0  0  0
   17.1220   15.0700    4.1500 C   0  0  2  0  0  0  0  0  0  0  0  0
   16.2340   14.0080    3.5040 C   0  0  0  0  0  0  0  0  0  0  0  0
   16.6480   15.8920    6.5430 C   0  0  0  0  0  0  0  0  0  0  0  0
   16.3230   16.0150    5.0590 C   0  0  0  0  0  0  0  0  0  0  0  0
   19.7364   15.6837    2.4482 H   0  0  0  0  0  0  0  0  0  0  0  0
   18.8536   15.2343    5.2900 H   0  0  0  0  0  0  0  0  0  0  0  0
   19.8707   14.2151    4.1875 H   0  0  0  0  0  0  0  0  0  0  0  0
   21.2378   15.1847    5.9681 H   0  0  0  0  0  0  0  0  0  0  0  0
   21.6811   15.8675    4.3478 H   0  0  0  0  0  0  0  0  0  0  0  0
   20.3160   17.2495    6.6953 H   0  0  0  0  0  0  0  0  0  0  0  0
   18.6028   17.7660    5.4393 H   0  0  0  0  0  0  0  0  0  0  0  0
   19.7835   19.0573    4.9428 H   0  0  0  0  0  0  0  0  0  0  0  0
   20.3653   17.8031    2.9451 H   0  0  0  0  0  0  0  0  0  0  0  0
   18.5711   18.0881    3.0316 H   0  0  0  0  0  0  0  0  0  0  0  0
   17.8677   14.5370    4.7582 H   0  0  0  0  0  0  0  0  0  0  0  0
   15.7395   13.4167    4.2887 H   0  0  0  0  0  0  0  0  0  0  0  0
   15.4725   14.4974    2.8790 H   0  0  0  0  0  0  0  0  0  0  0  0
   16.8505   13.3452    2.8790 H   0  0  0  0  0  0  0  0  0  0  0  0
   15.7818   16.2198    7.1365 H   0  0  0  0  0  0  0  0  0  0  0  0
   16.8805   14.8437    6.7818 H   0  0  0  0  0  0  0  0  0  0  0  0
   17.5163   16.5237    6.7818 H   0  0  0  0  0  0  0  0  0  0  0  0
   16.5309   17.0490    4.7466 H   0  0  0  0  0  0  0  0  0  0  0  0
   15.2651   15.7354    4.9470 H   0  0  0  0  0  0  0  0  0  0  0  0
  2  1  1  0
  3  2  1  0
  4  3  1  0
  5  4  1  0
  6  1  1  0
  6  5  1  0
  7  4  1  0
  8  7  2  0
  9  7  1  0
 10  1  1  0
 11 10  1  0
 12 11  1  0
 14 11  1  0
 14 13  1  0
  1 15  1  6
  2 16  1  0
  2 17  1  0
  3 18  1  0
  3 19  1  0
  4 20  1  1
  5 21  1  0
  5 22  1  0
  6 23  1  0
  6 24  1  0
 11 25  1  1
 12 26  1  0
 12 27  1  0
 12 28  1  0
 13 29  1  0
 13 30  1  0
 13 31  1  0
 14 32  1  0
 14 33  1  0
M  CHG  1   9  -1
M  END
$$$$
=
     RDKit          3D

 31 31  0  0  0  0  0  0  0  0999 V2000
   20.3280   15.0770    6.2840 O   0  0  0  0  0  0  0  0  0  0  0  0
   20.5030   15.6390    5.2180 C   0  0  0  0  0  0  0  0  0  0  0  0
   19.6780   15.7270    4.1350 N   0  0  0  0  0  0  0  0  0  0  0  0
   18.4180   15.1930    3.9730 C   0  0  0  0  0  0  0  0  0  0  0  0
   17.2400   15.8360    4.2700 C   0  0  0  0  0  0  0  0  0  0  0  0
   16.0790   15.0350    4.0010 C   0  0  0  0  0  0  0  0  0  0  0  0
   16.4500   13.7940    3.5000 C   0  0  0  0  0  0  0  0  0  0  0  0
   18.1520   13.6350    3.3730 S   0  0  0  0  0  0  0  0  0  0  0  0
   14.6790   15.5000    4.2360 C   0  0  0  0  0  0  0  0  0  0  0  0
   15.4400   12.6260    3.0810 C   0  0  0  0  0  0  0  0  0  0  0  0
   15.6810   12.0220    1.9890 O   0  0  0  0  0  0  0  0  0  0  0  0
   14.4740   12.3860    3.8680 O   0  0  0  0  0  1  0  0  0  0  0  0
   21.6390   16.3260    4.9050 O   0  0  0  0  0  0  0  0  0  0  0  0
   21.6760   17.7750    4.9770 C   0  0  0  0  0  0  0  0  0  0  0  0
   20.4350   18.3330    5.6820 C   0  0  0  0  0  0  0  0  0  0  0  0
   21.8840   18.3990    3.5940 C   0  0  0  0  0  0  0  0  0  0  0  0
   22.9090   18.0860    5.8420 C   0  0  0  0  0  0  0  0  0  0  0  0
   20.0444   16.2619    3.3347 H   0  0  0  0  0  0  0  0  0  0  0  0
   17.1917   16.8587    4.6722 H   0  0  0  0  0  0  0  0  0  0  0  0
   14.4902   15.5627    5.3179 H   0  0  0  0  0  0  0  0  0  0  0  0
   14.5410   16.4922    3.7816 H   0  0  0  0  0  0  0  0  0  0  0  0
   13.9748   14.7875    3.7816 H   0  0  0  0  0  0  0  0  0  0  0  0
   20.5732   18.2709    6.7715 H   0  0  0  0  0  0  0  0  0  0  0  0
   20.2888   19.3835    5.3903 H   0  0  0  0  0  0  0  0  0  0  0  0
   19.5522   17.7452    5.3903 H   0  0  0  0  0  0  0  0  0  0  0  0
   22.2300   19.4369    3.7083 H   0  0  0  0  0  0  0  0  0  0  0  0
   22.6378   17.8201    3.0402 H   0  0  0  0  0  0  0  0  0  0  0  0
   20.9337   18.3882    3.0402 H   0  0  0  0  0  0  0  0  0  0  0  0
   22.6374   18.0175    6.9057 H   0  0  0  0  0  0  0  0  0  0  0  0
   23.7054   17.3606    5.6195 H   0  0  0  0  0  0  0  0  0  0  0  0
   23.2661   19.1023    5.6195 H   0  0  0  0  0  0  0  0  0  0  0  0
  2  1  2  0
  3  2  1  0
  4  3  1  0
  5  4  2  0
  6  5  1  0
  7  6  2  0
  8  7  1  0
  8  4  1  0
  9  6  1  0
 10  7  1  0
 11 10  2  0
 12 10  1  0
 13  2  1  0
 14 13  1  0
 15 14  1  0
 16 14  1  0
 17 14  1  0
  3 18  1  0
  5 19  1  0
  9 20  1  0
  9 21  1  0
  9 22  1  0
 15 23  1  0
 15 24  1  0
 15 25  1  0
 16 26  1  0
 16 27  1  0
 16 28  1  0
 17 29  1  0
 17 30  1  0
 17 31  1  0
M  CHG  1  12  -1
M  END
$$$$
=
     RDKit          3D

 29 30  0  0  0  0  0  0  0  0999 V2000
   14.6280   14.9600    4.6200 C   0  0  0  0  0  0  0  0  0  0  0  0
   14.0970   16.0820    4.0370 F   0  0  0  0  0  0  0  0  0  0  0  0
   15.5050   14.3000    3.5390 C   0  0  0  0  0  0  0  0  0  0  0  0
   16.6600   15.2020    3.1060 C   0  0  0  0  0  0  0  0  0  0  0  0
   17.5110   15.6470    4.2950 C   0  0  0  0  0  0  0  0  0  0  0  0
   16.6480   16.3080    5.3710 C   0  0  0  0  0  0  0  0  0  0  0  0
   15.4840   15.4180    5.8090 C   0  0  0  0  0  0  0  0  0  0  0  0
   18.5010   16.5940    3.8470 O   0  0  0  0  0  0  0  0  0  0  0  0
   19.7410   15.8950    3.9270 C   0  0  0  0  0  0  0  0  0  0  0  0
   19.5230   14.9190    5.0480 C   0  0  0  0  0  0  0  0  0  0  0  0
   18.1790   14.4940    4.8430 O   0  0  0  0  0  0  0  0  0  0  0  0
   13.4910   14.0090    4.9790 C   0  0  0  0  0  0  0  0  0  0  0  0
   11.4050   14.9830    4.5130 O   0  0  0  0  0  1  0  0  0  0  0  0
   12.2700   14.1640    4.0870 C   0  0  0  0  0  0  0  0  0  0  0  0
   12.2390   13.4260    3.0640 O   0  0  0  0  0  0  0  0  0  0  0  0
   15.9181   13.3630    3.9408 H   0  0  0  0  0  0  0  0  0  0  0  0
   14.8732   14.1124    2.6583 H   0  0  0  0  0  0  0  0  0  0  0  0
   17.2970   14.6499    2.3994 H   0  0  0  0  0  0  0  0  0  0  0  0
   16.2337   16.1006    2.6361 H   0  0  0  0  0  0  0  0  0  0  0  0
   17.2778   16.5232    6.2468 H   0  0  0  0  0  0  0  0  0  0  0  0
   16.2251   17.2294    4.9442 H   0  0  0  0  0  0  0  0  0  0  0  0
   14.8485   15.9831    6.5067 H   0  0  0  0  0  0  0  0  0  0  0  0
   15.9047   14.5219    6.2886 H   0  0  0  0  0  0  0  0  0  0  0  0
   19.9575   15.3697    2.9851 H   0  0  0  0  0  0  0  0  0  0  0  0
   20.5980   16.5623    4.1011 H   0  0  0  0  0  0  0  0  0  0  0  0
   20.2212   14.0720    4.9766 H   0  0  0  0  0  0  0  0  0  0  0  0
   19.6936   15.3553    6.0432 H   0  0  0  0  0  0  0  0  0  0  0  0
   13.8590   12.9762    4.8900 H   0  0  0  0  0  0  0  0  0  0  0  0
   13.1766   14.2514    6.0049 H   0  0  0  0  0  0  0  0  0  0  0  0
  2  1  1  0
  3  1  1  0
  4  3  1  0
  5  4  1  0
  6  5  1  0
  7  1  1  0
  7  6  1  0
  8  5  1  0
  9  8  1  0
 10  9  1  0
 11 10  1  0
 11  5  1  0
 12  1  1  0
 14 13  1  0
 14 12  1  0
 15 14  2  0
  3 16  1  0
  3 17  1  0
  4 18  1  0
  4 19  1  0
  6 20  1  0
  6 21  1  0
  7 22  1  0
  7 23  1  0
  9 24  1  0
  9 25  1  0
 10 26  1  0
 10 27  1  0
 12 28  1  0
 12 29  1  0
M  CHG  1  13  -1
M  END
$$$$
=
     RDKit          3D

 17 17  0  0  0  0  0  0  0  0999 V2000
   16.8330   16.0120    4.8710 C   0  0  0  0  0  0  0  0  0  0  0  0
   15.4410   15.8920    4.9200 C   0  0  0  0  0  0  0  0  0  0  0  0
   14.7950   14.8440    4.2580 C   0  0  0  0  0  0  0  0  0  0  0  0
   13.4630   14.7780    4.3830 F   0  0  0  0  0  0  0  0  0  0  0  0
   15.5140   13.8970    3.5250 C   0  0  0  0  0  0  0  0  0  0  0  0
   16.9180   14.0110    3.4780 C   0  0  0  0  0  0  0  0  0  0  0  0
   17.5540   15.0580    4.1510 C   0  0  0  0  0  0  0  0  0  0  0  0
   18.9990   15.1280    4.0930 N   0  0  0  0  0  4  0  0  0  0  0  0
   19.4960   15.6620    3.0920 O   0  0  0  0  0  0  0  0  0  0  0  0
   19.6280   14.6390    5.0390 O   0  0  0  0  0  1  0  0  0  0  0  0
   14.8400   12.7650    2.8020 C   0  0  0  0  0  0  0  0  0  0  0  0
   15.6160   11.9460    2.2200 O   0  0  0  0  0  0  0  0  0  0  0  0
   13.5750   12.7320    2.8010 O   0  0  0  0  0  1  0  0  0  0  0  0
   17.9780   18.0180    6.0500 N   0  0  0  0  0  0  0  0  0  0  0  0
   17.4580   17.1160    5.5380 C   0  0  0  0  0  0  0  0  0  0  0  0
   14.8494   16.6282    5.4840 H   0  0  0  0  0  0  0  0  0  0  0  0
   17.5120   13.2776    2.9129 H   0  0  0  0  0  0  0  0  0  0  0  0
  2  1  2  0
  3  2  1  0
  4  3  1  0
  5  3  2  0
  6  5  1  0
  7  6  2  0
  7  1  1  0
  8  7  1  0
  9  8  2  0
 10  8  1  0
 11  5  1  0
 12 11  2  0
 13 11  1  0
 15  1  1  0
 15 14  3  0
  2 16  1  0
  6 17  1  0
M  CHG  3   8   1  10  -1  13  -1
M  END
$$$$
=
     RDKit          3D

 28 29  0  0  0  0  0  0  0  0999 V2000
   18.0840   16.7440    4.2800 C   0  0  2  0  0  0  0  0  0  0  0  0
   18.1190   15.3240    3.8110 C   0  0  0  0  0  0  0  0  0  0  0  0
   19.1510   14.5070    3.7020 N   0  0  0  0  0  0  0  0  0  0  0  0
   18.6520   13.3100    3.2270 N   0  0  0  0  0  0  0  0  0  0  0  0
   17.3550   13.4880    3.0850 C   0  0  0  0  0  0  0  0  0  0  0  0
   16.9330   14.7170    3.4960 O   0  0  0  0  0  0  0  0  0  0  0  0
   16.3250   12.5760    2.5670 C   0  0  0  0  0  0  0  0  0  0  0  0
   19.4660   17.3990    4.2470 C   0  0  0  0  0  0  0  0  0  0  0  0
   20.1230   17.7040    3.0480 C   0  0  0  0  0  0  0  0  0  0  0  0
   21.3780   18.3200    3.0540 C   0  0  0  0  0  0  0  0  0  0  0  0
   21.9910   18.6520    4.2590 C   0  0  0  0  0  0  0  0  0  0  0  0
   21.3470   18.3730    5.4610 C   0  0  0  0  0  0  0  0  0  0  0  0
   20.0940   17.7560    5.4560 C   0  0  0  0  0  0  0  0  0  0  0  0
   17.2520   16.9840    5.5430 C   0  0  0  0  0  0  0  0  0  0  0  0
   18.0630   15.2630    6.9350 O   0  0  0  0  0  1  0  0  0  0  0  0
   17.0190   15.7880    6.4570 C   0  0  0  0  0  0  0  0  0  0  0  0
   15.8150   15.4330    6.5880 O   0  0  0  0  0  0  0  0  0  0  0  0
   17.4988   17.3000    3.5328 H   0  0  0  0  0  0  0  0  0  0  0  0
   15.7945   12.1063    3.4084 H   0  0  0  0  0  0  0  0  0  0  0  0
   15.6095   13.1421    1.9525 H   0  0  0  0  0  0  0  0  0  0  0  0
   16.8003   11.7972    1.9525 H   0  0  0  0  0  0  0  0  0  0  0  0
   19.6451   17.4555    2.0889 H   0  0  0  0  0  0  0  0  0  0  0  0
   21.8831   18.5433    2.1027 H   0  0  0  0  0  0  0  0  0  0  0  0
   22.9803   19.1329    4.2612 H   0  0  0  0  0  0  0  0  0  0  0  0
   21.8252   18.6386    6.4154 H   0  0  0  0  0  0  0  0  0  0  0  0
   19.5900   17.5457    6.4109 H   0  0  0  0  0  0  0  0  0  0  0  0
   17.7626   17.7585    6.1341 H   0  0  0  0  0  0  0  0  0  0  0  0
   16.2526   17.2621    5.1773 H   0  0  0  0  0  0  0  0  0  0  0  0
  2  1  1  0
  3  2  2  0
  4  3  1  0
  5  4  2  0
  6  5  1  0
  6  2  1  0
  7  5  1  0
  8  1  1  0
  9  8  2  0
 10  9  1  0
 11 10  2  0
 12 11  1  0
 13  8  1  0
 13 12  2  0
 14  1  1  0
 16 15  1  0
 16 14  1  0
 17 16  2  0
  1 18  1  6
  7 19  1  0
  7 20  1  0
  7 21  1  0
  9 22  1  0
 10 23  1  0
 11 24  1  0
 12 25  1  0
 13 26  1  0
 14 27  1  0
 14 28  1  0
M  CHG  1  15  -1
M  END
$$$$
=
     RDKit          3D

 33 34  0  0  0  0  0  0  0  0999 V2000
   20.5840   18.0560    4.4500 C   0  0  0  0  0  0  0  0  0  0  0  0
   20.8310   18.1180    3.0870 C   0  0  0  0  0  0  0  0  0  0  0  0
   19.6370   17.2490    2.2250 S   0  0  0  0  0  0  0  0  0  0  0  0
   18.8730   16.8770    3.7050 C   0  0  0  0  0  0  0  0  0  0  0  0
   19.4310   17.3420    4.7880 N   0  0  0  0  0  0  0  0  0  0  0  0
   17.7520   16.1090    3.5520 N   0  0  0  0  0  0  0  0  0  0  0  0
   16.9540   15.7350    4.5980 C   0  0  0  0  0  0  0  0  0  0  0  0
   17.0150   16.0660    5.7750 O   0  0  0  0  0  0  0  0  0  0  0  0
   15.8170   14.8640    4.1860 C   0  0  0  0  0  0  0  0  0  0  0  0
   14.5330   15.1480    4.4560 C   0  0  0  0  0  0  0  0  0  0  0  0
   13.4060   14.3160    4.0150 C   0  0  0  0  0  0  0  0  0  0  0  0
   12.1000   14.7380    4.3070 C   0  0  0  0  0  0  0  0  0  0  0  0
   10.9970   13.9920    3.8830 C   0  0  0  0  0  0  0  0  0  0  0  0
   11.1970   12.8170    3.1490 C   0  0  0  0  0  0  0  0  0  0  0  0
   12.4930   12.3910    2.8340 C   0  0  0  0  0  0  0  0  0  0  0  0
   13.5910   13.1450    3.2640 C   0  0  0  0  0  0  0  0  0  0  0  0
   10.0420   12.0300    2.7020 N   0  0  0  0  0  4  0  0  0  0  0  0
    8.9130   12.4220    3.0320 O   0  0  0  0  0  0  0  0  0  0  0  0
   10.2610   11.0180    2.0210 O   0  0  0  0  0  1  0  0  0  0  0  0
   21.3810   18.6740    5.5530 C   0  0  0  0  0  0  0  0  0  0  0  0
   23.7330   18.4780    5.3830 O   0  0  0  0  0  1  0  0  0  0  0  0
   22.6810   17.9220    5.8190 C   0  0  0  0  0  0  0  0  0  0  0  0
   22.5690   16.8290    6.4460 O   0  0  0  0  0  0  0  0  0  0  0  0
   21.6755   18.6508    2.6256 H   0  0  0  0  0  0  0  0  0  0  0  0
   17.4964   15.7974    2.6041 H   0  0  0  0  0  0  0  0  0  0  0  0
   16.0415   13.9406    3.6320 H   0  0  0  0  0  0  0  0  0  0  0  0
   14.3129   16.0539    5.0398 H   0  0  0  0  0  0  0  0  0  0  0  0
   11.9427   15.6662    4.8759 H   0  0  0  0  0  0  0  0  0  0  0  0
    9.9773   14.3263    4.1247 H   0  0  0  0  0  0  0  0  0  0  0  0
   12.6472   11.4700    2.2526 H   0  0  0  0  0  0  0  0  0  0  0  0
   14.6097   12.8163    3.0106 H   0  0  0  0  0  0  0  0  0  0  0  0
   21.6223   19.7111    5.2769 H   0  0  0  0  0  0  0  0  0  0  0  0
   20.7748   18.6332    6.4700 H   0  0  0  0  0  0  0  0  0  0  0  0
  2  1  2  0
  3  2  1  0
  4  3  1  0
  5  4  2  0
  5  1  1  0
  6  4  1  0
  7  6  1  0
  8  7  2  0
  9  7  1  0
 10  9  2  0
 11 10  1  0
 12 11  2  0
 13 12  1  0
 14 13  2  0
 15 14  1  0
 16 15  2  0
 16 11  1  0
 17 14  1  0
 18 17  2  0
 19 17  1  0
 20  1  1  0
 22 20  1  0
 22 21  1  0
 23 22  2  0
  2 24  1  0
  6 25  1  0
  9 26  1  0
 10 27  1  0
 12 28  1  0
 13 29  1  0
 15 30  1  0
 16 31  1  0
 20 32  1  0
 20 33  1  0
M  CHG  3  17   1  19  -1  21  -1
M  END
$$$$
=
     RDKit          3D

 34 36  0  0  0  0  0  0  0  0999 V2000
   17.7850   16.2480    5.1070 C   0  0  0  0  0  0  0  0  0  0  0  0
   16.4760   16.5830    5.3280 N   0  0  0  0  0  0  0  0  0  0  0  0
   15.8110   15.6500    4.6830 C   0  0  0  0  0  0  0  0  0  0  0  0
   16.7270   14.8030    4.0320 N   0  0  0  0  0  0  0  0  0  0  0  0
   17.9760   15.2780    4.2090 N   0  0  0  0  0  0  0  0  0  0  0  0
   16.2890   13.6880    3.3200 C   0  0  0  0  0  0  0  0  0  0  0  0
   14.9710   13.4110    3.2820 C   0  0  0  0  0  0  0  0  0  0  0  0
   14.0790   14.3820    3.9860 C   0  0  0  0  0  0  0  0  0  0  0  0
   14.4610   15.4480    4.6190 N   0  0  0  0  0  0  0  0  0  0  0  0
   12.6550   14.0510    3.9030 C   0  0  0  0  0  0  0  0  0  0  0  0
   11.5730   14.6180    4.6390 C   0  0  0  0  0  0  0  0  0  0  0  0
   10.4420   13.9820    4.1850 C   0  0  0  0  0  0  0  0  0  0  0  0
   10.8690   13.1060    3.2340 N   0  0  0  0  0  0  0  0  0  0  0  0
   12.1980   13.1010    3.0670 N   0  0  0  0  0  0  0  0  0  0  0  0
   10.0540   12.2260    2.4320 C   0  0  0  0  0  0  0  0  0  0  0  0
   17.3100   12.8670    2.6210 C   0  0  0  0  0  0  0  0  0  0  0  0
   16.8220   12.2010    1.5470 F   0  0  0  0  0  0  0  0  0  0  0  0
   17.8820   11.9540    3.4480 F   0  0  0  0  0  0  0  0  0  0  0  0
   18.9070   16.9540    5.7860 C   0  0  0  0  0  0  0  0  0  0  0  0
   20.2690   16.5840    5.2160 C   0  0  0  0  0  0  0  0  0  0  0  0
   20.6740   15.0560    6.9680 O   0  0  0  0  0  1  0  0  0  0  0  0
   21.1390   16.0520    6.3470 C   0  0  0  0  0  0  0  0  0  0  0  0
   22.2020   16.7050    6.5500 O   0  0  0  0  0  0  0  0  0  0  0  0
   14.5756   12.5245    2.7645 H   0  0  0  0  0  0  0  0  0  0  0  0
   11.6313   15.4010    5.4094 H   0  0  0  0  0  0  0  0  0  0  0  0
    9.4073   14.1465    4.5202 H   0  0  0  0  0  0  0  0  0  0  0  0
    9.4552   11.5794    3.0903 H   0  0  0  0  0  0  0  0  0  0  0  0
    9.3838   12.8241    1.7971 H   0  0  0  0  0  0  0  0  0  0  0  0
   10.7017   11.6036    1.7971 H   0  0  0  0  0  0  0  0  0  0  0  0
   18.0584   13.5967    2.2784 H   0  0  0  0  0  0  0  0  0  0  0  0
   18.7608   18.0381    5.6709 H   0  0  0  0  0  0  0  0  0  0  0  0
   18.8973   16.6504    6.8432 H   0  0  0  0  0  0  0  0  0  0  0  0
   20.1500   15.8096    4.4439 H   0  0  0  0  0  0  0  0  0  0  0  0
   20.7403   17.4685    4.7627 H   0  0  0  0  0  0  0  0  0  0  0  0
  2  1  1  0
  3  2  2  0
  4  3  1  0
  5  4  1  0
  5  1  2  0
  6  4  1  0
  7  6  2  0
  8  7  1  0
  9  8  2  0
  9  3  1  0
 10  8  1  0
 11 10  1  0
 12 11  2  0
 13 12  1  0
 14 13  1  0
 14 10  2  0
 15 13  1  0
 16  6  1  0
 17 16  1  0
 18 16  1  0
 19  1  1  0
 20 19  1  0
 22 21  1  0
 22 20  1  0
 23 22  2  0
  7 24  1  0
 11 25  1  0
 12 26  1  0
 15 27  1  0
 15 28  1  0
 15 29  1  0
 16 30  1  0
 19 31  1  0
 19 32  1  0
 20 33  1  0
 20 34  1  0
M  CHG  1  21  -1
M  END
$$$$
=
     RDKit          3D

 30 31  0  0  0  0  0  0  0  0999 V2000
   20.4250   16.5880    4.9800 C   0  0  1  0  0  0  0  0  0  0  0  0
   20.7970   16.1040    6.3990 C   0  0  0  0  0  0  0  0  0  0  0  0
   20.0100   14.7960    6.5480 C   0  0  0  0  0  0  0  0  0  0  0  0
   19.1910   14.7370    5.2470 C   0  0  2  0  0  0  0  0  0  0  0  0
   20.2410   15.2470    4.2550 C   0  0  0  0  0  0  0  0  0  0  0  0
   18.0970   15.8540    5.1970 C   0  0  0  0  0  0  0  0  0  0  0  0
   18.9650   17.1350    4.9290 C   0  0  1  0  0  0  0  0  0  0  0  0
   18.6930   18.3480    5.8150 C   0  0  0  0  0  0  0  0  0  0  0  0
   17.2260   15.9010    6.4630 C   0  0  0  0  0  0  0  0  0  0  0  0
   17.1450   15.6060    4.0080 C   0  0  0  0  0  0  0  0  0  0  0  0
   22.5020   17.7320    4.9430 O   0  0  0  0  0  1  0  0  0  0  0  0
   21.4230   17.5440    4.3130 C   0  0  0  0  0  0  0  0  0  0  0  0
   21.0570   18.0190    3.2020 O   0  0  0  0  0  0  0  0  0  0  0  0
   21.8789   15.9237    6.4820 H   0  0  0  0  0  0  0  0  0  0  0  0
   20.5566   16.8404    7.1800 H   0  0  0  0  0  0  0  0  0  0  0  0
   20.6878   13.9334    6.6283 H   0  0  0  0  0  0  0  0  0  0  0  0
   19.3878   14.7645    7.4546 H   0  0  0  0  0  0  0  0  0  0  0  0
   18.7213   13.7538    5.0965 H   0  0  0  0  0  0  0  0  0  0  0  0
   21.1546   14.6346    4.2373 H   0  0  0  0  0  0  0  0  0  0  0  0
   19.9843   15.2629    3.1855 H   0  0  0  0  0  0  0  0  0  0  0  0
   18.7120   17.5938    3.9618 H   0  0  0  0  0  0  0  0  0  0  0  0
   18.7594   18.0520    6.8723 H   0  0  0  0  0  0  0  0  0  0  0  0
   19.4382   19.1295    5.6055 H   0  0  0  0  0  0  0  0  0  0  0  0
   17.6854   18.7365    5.6055 H   0  0  0  0  0  0  0  0  0  0  0  0
   17.8710   15.8662    7.3533 H   0  0  0  0  0  0  0  0  0  0  0  0
   16.6403   16.8321    6.4707 H   0  0  0  0  0  0  0  0  0  0  0  0
   16.5435   15.0384    6.4707 H   0  0  0  0  0  0  0  0  0  0  0  0
   16.1456   15.3456    4.3866 H   0  0  0  0  0  0  0  0  0  0  0  0
   17.0790   16.5169    3.3949 H   0  0  0  0  0  0  0  0  0  0  0  0
   17.5318   14.7787    3.3949 H   0  0  0  0  0  0  0  0  0  0  0  0
  2  1  1  0
  3  2  1  0
  4  3  1  0
  5  4  1  0
  5  1  1  0
  6  4  1  0
  7  6  1  0
  7  1  1  0
  8  7  1  0
  9  6  1  0
 10  6  1  0
  1 12  1  6
 12 11  1  0
 13 12  2  0
  2 14  1  0
  2 15  1  0
  3 16  1  0
  3 17  1  0
  4 18  1  6
  5 19  1  0
  5 20  1  0
  7 21  1  6
  8 22  1  0
  8 23  1  0
  8 24  1  0
  9 25  1  0
  9 26  1  0
  9 27  1  0
 10 28  1  0
 10 29  1  0
 10 30  1  0
M  CHG  1  11  -1
M  END
$$$$
=
     RDKit          3D

 31 32  0  0  0  0  0  0  0  0999 V2000
   19.1320   16.6360    4.2700 C   0  0  2  0  0  0  0  0  0  0  0  0
   20.3970   16.0140    4.8520 C   0  0  1  0  0  0  0  0  0  0  0  0
   20.3370   17.5170    4.5840 C   0  0  0  0  0  0  0  0  0  0  0  0
   21.1350   18.0390    3.4170 C   0  0  0  0  0  0  0  0  0  0  0  0
   20.3050   18.4770    5.7510 C   0  0  0  0  0  0  0  0  0  0  0  0
   17.7040   17.5400    5.9290 O   0  0  0  0  0  0  0  0  0  0  0  0
   17.8450   16.7270    5.0170 C   0  0  0  0  0  0  0  0  0  0  0  0
   16.7970   15.9640    4.5420 N   0  0  0  0  0  0  0  0  0  0  0  0
   15.5840   15.8230    5.3170 C   0  0  0  0  0  0  0  0  0  0  0  0
   14.6910   14.9350    4.4640 C   0  0  0  0  0  0  0  0  0  0  0  0
   15.6960   14.0440    3.7450 C   0  0  0  0  0  0  0  0  0  0  0  0
   16.8480   14.9970    3.4570 C   0  0  0  0  0  0  0  0  0  0  0  0
   20.4540   15.5000    6.2350 C   0  0  0  0  0  0  0  0  0  0  0  0
   21.4520   15.8450    6.9420 O   0  0  0  0  0  0  0  0  0  0  0  0
   19.5530   14.6860    6.6050 O   0  0  0  0  0  1  0  0  0  0  0  0
   18.5137   16.4473    3.3800 H   0  0  0  0  0  0  0  0  0  0  0  0
   21.0557   15.1861    4.5508 H   0  0  0  0  0  0  0  0  0  0  0  0
   22.0012   18.6056    3.7893 H   0  0  0  0  0  0  0  0  0  0  0  0
   21.4848   17.1946    2.8050 H   0  0  0  0  0  0  0  0  0  0  0  0
   20.5015   18.6978    2.8050 H   0  0  0  0  0  0  0  0  0  0  0  0
   20.3239   17.9096    6.6932 H   0  0  0  0  0  0  0  0  0  0  0  0
   21.1815   19.1400    5.7046 H   0  0  0  0  0  0  0  0  0  0  0  0
   19.3863   19.0801    5.7046 H   0  0  0  0  0  0  0  0  0  0  0  0
   15.7944   15.3471    6.2862 H   0  0  0  0  0  0  0  0  0  0  0  0
   15.1167   16.7925    5.5444 H   0  0  0  0  0  0  0  0  0  0  0  0
   14.0092   14.3400    5.0894 H   0  0  0  0  0  0  0  0  0  0  0  0
   14.0390   15.4986    3.7804 H   0  0  0  0  0  0  0  0  0  0  0  0
   16.0207   13.2134    4.3890 H   0  0  0  0  0  0  0  0  0  0  0  0
   15.2876   13.5693    2.8406 H   0  0  0  0  0  0  0  0  0  0  0  0
   17.8077   14.4595    3.4594 H   0  0  0  0  0  0  0  0  0  0  0  0
   16.7627   15.4713    2.4682 H   0  0  0  0  0  0  0  0  0  0  0  0
  2  1  1  0
  3  2  1  0
  3  1  1  0
  4  3  1  0
  5  3  1  0
  7  1  1  0
  7  6  2  0
  8  7  1  0
  9  8  1  0
 10  9  1  0
 11 10  1  0
 12 11  1  0
 12  8  1  0
 13  2  1  0
 14 13  2  0
 15 13  1  0
  1 16  1  6
  2 17  1  6
  4 18  1  0
  4 19  1  0
  4 20  1  0
  5 21  1  0
  5 22  1  0
  5 23  1  0
  9 24  1  0
  9 25  1  0
 10 26  1  0
 10 27  1  0
 11 28  1  0
 11 29  1  0
 12 30  1  0
 12 31  1  0
M  CHG  1  15  -1
M  END
$$$$
=
     RDKit          3D

 49 52  0  0  0  0  0  0  0  0999 V2000
   28.2730   24.4660   12.9770 C   0  0  0  0  0  0  0  0  0  0  0  0
   28.9970   23.4650   12.3560 C   0  0  0  0  0  0  0  0  0  0  0  0
   28.1800   22.8030   11.0090 S   0  0  0  0  0  0  0  0  0  0  0  0
   26.8410   23.8320   11.2400 C   0  0  0  0  0  0  0  0  0  0  0  0
   27.0130   24.6750   12.3180 C   0  0  0  0  0  0  0  0  0  0  0  0
   25.9460   25.6230   12.6100 C   0  0  0  0  0  0  0  0  0  0  0  0
   26.0320   26.4590   13.5050 O   0  0  0  0  0  0  0  0  0  0  0  0
   24.8460   25.5140   11.7610 N   0  0  0  0  0  0  0  0  0  0  0  0
   24.8170   24.5990   10.7240 C   0  0  0  0  0  0  0  0  0  0  0  0
   25.7650   23.7730   10.4160 N   0  0  0  0  0  0  0  0  0  0  0  0
   29.8130   26.4410   16.4330 C   0  0  0  0  0  0  0  0  0  0  0  0
   28.9150   25.3820   16.5710 C   0  0  0  0  0  0  0  0  0  0  0  0
   28.4150   24.7310   15.4360 C   0  0  0  0  0  0  0  0  0  0  0  0
   28.8080   25.1330   14.1550 C   0  0  0  0  0  0  0  0  0  0  0  0
   29.7090   26.1930   14.0190 C   0  0  0  0  0  0  0  0  0  0  0  0
   30.2060   26.8400   15.1530 C   0  0  0  0  0  0  0  0  0  0  0  0
   30.3730   27.1600   17.4530 O   0  0  0  0  0  0  0  0  0  0  0  0
   29.4830   27.7540   18.3960 C   0  0  0  0  0  0  0  0  0  0  0  0
   27.2450   28.6180   17.5810 C   0  0  0  0  0  0  0  0  0  0  0  0
   28.7340   28.8980   17.7160 C   0  0  0  0  0  0  0  0  0  0  0  0
   23.7120   26.4010   11.9610 C   0  0  0  0  0  0  0  0  0  0  0  0
   22.9200   26.0450   13.1940 C   0  0  0  0  0  0  0  0  0  0  0  0
   22.5060   24.7260   13.4220 C   0  0  0  0  0  0  0  0  0  0  0  0
   21.7780   24.4010   14.5710 C   0  0  0  0  0  0  0  0  0  0  0  0
   21.4480   25.3810   15.5190 C   0  0  0  0  0  0  0  0  0  0  0  0
   21.8710   26.6980   15.2850 C   0  0  0  0  0  0  0  0  0  0  0  0
   22.5980   27.0290   14.1390 C   0  0  0  0  0  0  0  0  0  0  0  0
   20.6540   25.0230   16.7610 C   0  0  0  0  0  0  0  0  0  0  0  0
   19.4980   25.5390   16.8800 O   0  0  0  0  0  0  0  0  0  0  0  0
   21.2050   24.2310   17.5910 O   0  0  0  0  0  1  0  0  0  0  0  0
   29.9898   23.1314   12.6921 H   0  0  0  0  0  0  0  0  0  0  0  0
   23.9074   24.5707   10.1061 H   0  0  0  0  0  0  0  0  0  0  0  0
   28.5990   25.0576   17.5735 H   0  0  0  0  0  0  0  0  0  0  0  0
   27.7075   23.8968   15.5529 H   0  0  0  0  0  0  0  0  0  0  0  0
   30.0272   26.5182   13.0175 H   0  0  0  0  0  0  0  0  0  0  0  0
   30.9148   27.6731   15.0368 H   0  0  0  0  0  0  0  0  0  0  0  0
   28.7639   27.0008   18.7503 H   0  0  0  0  0  0  0  0  0  0  0  0
   30.0524   28.1394   19.2546 H   0  0  0  0  0  0  0  0  0  0  0  0
   26.7956   28.5335   18.5815 H   0  0  0  0  0  0  0  0  0  0  0  0
   26.7653   29.4417   17.0320 H   0  0  0  0  0  0  0  0  0  0  0  0
   27.0973   27.6763   17.0320 H   0  0  0  0  0  0  0  0  0  0  0  0
   29.1572   29.0497   16.7121 H   0  0  0  0  0  0  0  0  0  0  0  0
   28.8509   29.7943   18.3428 H   0  0  0  0  0  0  0  0  0  0  0  0
   24.0824   27.4317   12.0634 H   0  0  0  0  0  0  0  0  0  0  0  0
   23.0463   26.2990   11.0913 H   0  0  0  0  0  0  0  0  0  0  0  0
   22.7552   23.9412   12.6927 H   0  0  0  0  0  0  0  0  0  0  0  0
   21.4592   23.3609   14.7339 H   0  0  0  0  0  0  0  0  0  0  0  0
   21.6262   27.4828   16.0159 H   0  0  0  0  0  0  0  0  0  0  0  0
   22.9198   28.0683   13.9771 H   0  0  0  0  0  0  0  0  0  0  0  0
  2  1  2  0
  3  2  1  0
  4  3  1  0
  5  4  2  0
  5  1  1  0
  6  5  1  0
  7  6  2  0
  8  6  1  0
  9  8  1  0
 10  9  2  0
 10  4  1  0
 12 11  2  0
 13 12  1  0
 14 13  2  0
 14  1  1  0
 15 14  1  0
 16 15  2  0
 16 11  1  0
 17 11  1  0
 18 17  1  0
 20 19  1  0
 20 18  1  0
 21  8  1  0
 22 21  1  0
 23 22  2  0
 24 23  1  0
 25 24  2  0
 26 25  1  0
 27 26  2  0
 27 22  1  0
 28 25  1  0
 29 28  2  0
 30 28  1  0
  2 31  1  0
  9 32  1  0
 12 33  1  0
 13 34  1  0
 15 35  1  0
 16 36  1  0
 18 37  1  0
 18 38  1  0
 19 39  1  0
 19 40  1  0
 19 41  1  0
 20 42  1  0
 20 43  1  0
 21 44  1  0
 21 45  1  0
 23 46  1  0
 24 47  1  0
 26 48  1  0
 27 49  1  0
M  CHG  1  30  -1
M  END
$$$$
=
     RDKit          3D

 50 52  0  0  0  0  0  0  0  0999 V2000
   14.4210   13.4470    3.8700 C   0  0  0  0  0  0  0  0  0  0  0  0
   14.4470   14.6510    4.5680 C   0  0  0  0  0  0  0  0  0  0  0  0
   15.6240   15.4000    4.6190 C   0  0  0  0  0  0  0  0  0  0  0  0
   16.7800   14.9590    3.9570 C   0  0  0  0  0  0  0  0  0  0  0  0
   16.7180   13.7720    3.2100 C   0  0  0  0  0  0  0  0  0  0  0  0
   15.5420   13.0170    3.1660 C   0  0  0  0  0  0  0  0  0  0  0  0
   18.0430   15.7100    4.0430 C   0  0  0  0  0  0  0  0  0  0  0  0
   18.8440   15.6480    5.1140 C   0  0  0  0  0  0  0  0  0  0  0  0
   20.0960   16.3840    5.0950 C   0  0  0  0  0  0  0  0  0  0  0  0
   20.9760   16.3300    6.1820 C   0  0  0  0  0  0  0  0  0  0  0  0
   22.1780   17.0420    6.1480 C   0  0  0  0  0  0  0  0  0  0  0  0
   22.5070   17.8090    5.0300 C   0  0  0  0  0  0  0  0  0  0  0  0
   21.6350   17.8620    3.9420 C   0  0  0  0  0  0  0  0  0  0  0  0
   20.4290   17.1480    3.9750 C   0  0  0  0  0  0  0  0  0  0  0  0
   19.5140   17.1990    2.8100 C   0  0  0  0  0  0  0  0  0  0  0  0
   19.7880   17.8700    1.8200 O   0  0  0  0  0  0  0  0  0  0  0  0
   18.3650   16.4640    2.8920 O   0  0  0  0  0  0  0  0  0  0  0  0
   13.2560   12.7290    3.8830 O   0  0  0  0  0  0  0  0  0  0  0  0
   12.2560   13.3450    3.0690 C   0  0  0  0  0  0  0  0  0  0  0  0
   10.3610   13.7050    4.5540 N   0  0  0  0  0  0  0  0  0  0  0  0
   10.7960   13.0310    3.4400 C   0  0  0  0  0  0  0  0  0  0  0  0
   10.0870   12.2800    2.7750 O   0  0  0  0  0  0  0  0  0  0  0  0
    9.0520   13.4850    5.2010 C   0  0  1  0  0  0  0  0  0  0  0  0
    9.1550   13.7850    6.7380 C   0  0  0  0  0  0  0  0  0  0  0  0
   10.2730   13.4450    7.2430 O   0  0  0  0  0  0  0  0  0  0  0  0
    8.1440   14.3070    7.2800 O   0  0  0  0  0  1  0  0  0  0  0  0
    7.9840   14.4330    4.6360 C   0  0  0  0  0  0  0  0  0  0  0  0
    6.8970   13.6950    3.8580 C   0  0  0  0  0  0  0  0  0  0  0  0
    5.4920   12.2400    5.7660 C   0  0  0  0  0  0  0  0  0  0  0  0
    6.6600   11.9620    4.4110 S   0  0  0  0  0  0  0  0  0  0  0  0
   13.5418   15.0116    5.0785 H   0  0  0  0  0  0  0  0  0  0  0  0
   15.6454   16.3441    5.1831 H   0  0  0  0  0  0  0  0  0  0  0  0
   17.6039   13.4323    2.6534 H   0  0  0  0  0  0  0  0  0  0  0  0
   15.5030   12.0881    2.5781 H   0  0  0  0  0  0  0  0  0  0  0  0
   18.5590   15.0504    5.9925 H   0  0  0  0  0  0  0  0  0  0  0  0
   20.7209   15.7258    7.0651 H   0  0  0  0  0  0  0  0  0  0  0  0
   22.8664   16.9976    7.0048 H   0  0  0  0  0  0  0  0  0  0  0  0
   23.4523   18.3710    5.0063 H   0  0  0  0  0  0  0  0  0  0  0  0
   21.8938   18.4640    3.0585 H   0  0  0  0  0  0  0  0  0  0  0  0
   12.3930   14.4345    3.1345 H   0  0  0  0  0  0  0  0  0  0  0  0
   12.4004   12.9328    2.0594 H   0  0  0  0  0  0  0  0  0  0  0  0
   10.9888   14.4103    4.9655 H   0  0  0  0  0  0  0  0  0  0  0  0
    8.7714   12.4384    5.0115 H   0  0  0  0  0  0  0  0  0  0  0  0
    7.5145   14.9729    5.4715 H   0  0  0  0  0  0  0  0  0  0  0  0
    8.4843   15.1211    3.9387 H   0  0  0  0  0  0  0  0  0  0  0  0
    5.9476   14.2355    3.9862 H   0  0  0  0  0  0  0  0  0  0  0  0
    7.2152   13.6609    2.8056 H   0  0  0  0  0  0  0  0  0  0  0  0
    6.0106   12.1166    6.7282 H   0  0  0  0  0  0  0  0  0  0  0  0
    5.0858   13.2599    5.6965 H   0  0  0  0  0  0  0  0  0  0  0  0
    4.6699   11.5124    5.6965 H   0  0  0  0  0  0  0  0  0  0  0  0
  2  1  2  0
  3  2  1  0
  4  3  2  0
  5  4  1  0
  6  1  1  0
  6  5  2  0
  7  4  1  0
  8  7  2  0
  9  8  1  0
 10  9  2  0
 11 10  1  0
 12 11  2  0
 13 12  1  0
 14 13  2  0
 14  9  1  0
 15 14  1  0
 16 15  2  0
 17  7  1  0
 17 15  1  0
 18  1  1  0
 19 18  1  0
 21 20  1  0
 21 19  1  0
 22 21  2  0
 23 20  1  0
 24 23  1  0
 25 24  2  0
 26 24  1  0
 27 23  1  0
 28 27  1  0
 30 28  1  0
 30 29  1  0
  2 31  1  0
  3 32  1  0
  5 33  1  0
  6 34  1  0
  8 35  1  0
 10 36  1  0
 11 37  1  0
 12 38  1  0
 13 39  1  0
 19 40  1  0
 19 41  1  0
 20 42  1  0
 23 43  1  1
 27 44  1  0
 27 45  1  0
 28 46  1  0
 28 47  1  0
 29 48  1  0
 29 49  1  0
 29 50  1  0
M  CHG  1  26  -1
M  END
$$$$
=
     RDKit          3D

 24 25  0  0  0  0  0  0  0  0999 V2000
   20.2150   17.8450    4.8990 C   0  0  0  0  0  0  0  0  0  0  0  0
   20.4510   17.2330    3.6660 C   0  0  0  0  0  0  0  0  0  0  0  0
   19.4740   16.4280    3.0890 C   0  0  0  0  0  0  0  0  0  0  0  0
   18.2500   16.2350    3.7370 C   0  0  0  0  0  0  0  0  0  0  0  0
   17.9610   16.8490    4.9700 C   0  0  0  0  0  0  0  0  0  0  0  0
   18.9730   17.6560    5.5250 C   0  0  0  0  0  0  0  0  0  0  0  0
   16.6400   16.6910    5.7010 C   0  0  0  0  0  0  0  0  0  0  0  0
   16.4380   15.5930    6.7180 C   0  0  0  0  0  0  0  0  0  0  0  0
   15.7060   15.5420    5.4080 C   0  0  0  0  0  0  0  0  0  0  0  0
   21.2680   18.7160    5.5360 C   0  0  0  0  0  0  0  0  0  0  0  0
   23.5920   18.4600    5.1780 O   0  0  0  0  0  1  0  0  0  0  0  0
   22.5820   17.9670    5.7590 C   0  0  0  0  0  0  0  0  0  0  0  0
   22.4920   16.9130    6.4560 O   0  0  0  0  0  0  0  0  0  0  0  0
   21.4104   17.3876    3.1505 H   0  0  0  0  0  0  0  0  0  0  0  0
   19.6648   15.9422    2.1207 H   0  0  0  0  0  0  0  0  0  0  0  0
   17.4935   15.5865    3.2710 H   0  0  0  0  0  0  0  0  0  0  0  0
   18.7829   18.1572    6.4855 H   0  0  0  0  0  0  0  0  0  0  0  0
   16.5468   17.7870    5.7028 H   0  0  0  0  0  0  0  0  0  0  0  0
   17.2483   14.8779    6.9230 H   0  0  0  0  0  0  0  0  0  0  0  0
   16.1399   15.5595    7.7763 H   0  0  0  0  0  0  0  0  0  0  0  0
   15.9804   14.7894    4.6542 H   0  0  0  0  0  0  0  0  0  0  0  0
   14.6504   15.4556    5.1111 H   0  0  0  0  0  0  0  0  0  0  0  0
   21.4589   19.5779    4.8797 H   0  0  0  0  0  0  0  0  0  0  0  0
   20.8914   19.0357    6.5188 H   0  0  0  0  0  0  0  0  0  0  0  0
  2  1  2  0
  3  2  1  0
  4  3  2  0
  5  4  1  0
  6  5  2  0
  6  1  1  0
  7  5  1  0
  8  7  1  0
  9  8  1  0
  9  7  1  0
 10  1  1  0
 12 10  1  0
 12 11  1  0
 13 12  2  0
  2 14  1  0
  3 15  1  0
  4 16  1  0
  6 17  1  0
  7 18  1  0
  8 19  1  0
  8 20  1  0
  9 21  1  0
  9 22  1  0
 10 23  1  0
 10 24  1  0
M  CHG  1  11  -1
M  END
$$$$
=
     RDKit          3D

 30 32  0  0  0  0  0  0  0  0999 V2000
   19.5130   17.6750    4.9270 C   0  0  0  0  0  0  0  0  0  0  0  0
   18.7800   18.1540    5.9080 N   0  0  0  0  0  0  0  0  0  0  0  0
   17.5700   17.4980    5.8820 N   0  0  0  0  0  0  0  0  0  0  0  0
   17.5940   16.6420    4.8770 C   0  0  0  0  0  0  0  0  0  0  0  0
   18.8040   16.7360    4.2280 N   0  0  0  0  0  0  0  0  0  0  0  0
   19.1960   16.0010    3.0540 C   0  0  0  0  0  0  0  0  0  0  0  0
   16.4970   15.7870    4.5360 C   0  0  0  0  0  0  0  0  0  0  0  0
   15.1580   15.9690    4.8490 C   0  0  0  0  0  0  0  0  0  0  0  0
   14.4360   14.8770    4.3060 C   0  0  0  0  0  0  0  0  0  0  0  0
   15.3840   14.0800    3.6820 C   0  0  0  0  0  0  0  0  0  0  0  0
   16.6210   14.6270    3.8120 O   0  0  0  0  0  0  0  0  0  0  0  0
   15.0910   12.8920    3.0180 C   0  0  0  0  0  0  0  0  0  0  0  0
   13.7470   12.5040    2.9960 C   0  0  0  0  0  0  0  0  0  0  0  0
   12.7620   13.2800    3.6130 C   0  0  0  0  0  0  0  0  0  0  0  0
   13.0890   14.4730    4.2740 C   0  0  0  0  0  0  0  0  0  0  0  0
   21.1010   18.2260    4.5260 S   0  0  0  0  0  0  0  0  0  0  0  0
   22.0310   17.6440    5.9820 C   0  0  0  0  0  0  0  0  0  0  0  0
   22.0140   15.4610    5.0590 O   0  0  0  0  0  1  0  0  0  0  0  0
   21.7530   16.1440    6.0930 C   0  0  0  0  0  0  0  0  0  0  0  0
   21.2840   15.7490    7.2000 O   0  0  0  0  0  0  0  0  0  0  0  0
   19.6939   15.0675    3.3551 H   0  0  0  0  0  0  0  0  0  0  0  0
   18.3044   15.7643    2.4549 H   0  0  0  0  0  0  0  0  0  0  0  0
   19.8893   16.6096    2.4549 H   0  0  0  0  0  0  0  0  0  0  0  0
   14.7329   16.8098    5.4167 H   0  0  0  0  0  0  0  0  0  0  0  0
   15.8752   12.2899    2.5359 H   0  0  0  0  0  0  0  0  0  0  0  0
   13.4609   11.5730    2.4847 H   0  0  0  0  0  0  0  0  0  0  0  0
   11.7133   12.9498    3.5797 H   0  0  0  0  0  0  0  0  0  0  0  0
   12.3089   15.0797    4.7570 H   0  0  0  0  0  0  0  0  0  0  0  0
   23.1075   17.8233    5.8438 H   0  0  0  0  0  0  0  0  0  0  0  0
   21.7241   18.1775    6.8937 H   0  0  0  0  0  0  0  0  0  0  0  0
  2  1  2  0
  3  2  1  0
  4  3  2  0
  5  4  1  0
  5  1  1  0
  6  5  1  0
  7  4  1  0
  8  7  2  0
  9  8  1  0
 10  9  2  0
 11 10  1  0
 11  7  1  0
 12 10  1  0
 13 12  2  0
 14 13  1  0
 15 14  2  0
 15  9  1  0
 16  1  1  0
 17 16  1  0
 19 18  1  0
 19 17  1  0
 20 19  2  0
  6 21  1  0
  6 22  1  0
  6 23  1  0
  8 24  1  0
 12 25  1  0
 13 26  1  0
 14 27  1  0
 15 28  1  0
 17 29  1  0
 17 30  1  0
M  CHG  1  18  -1
M  END
$$$$
=
     RDKit          3D

 49 51  0  0  0  0  0  0  0  0999 V2000
   20.3950   17.4280    5.3510 C   0  0  2  0  0  0  0  0  0  0  0  0
   20.3930   18.8040    6.0530 C   0  0  0  0  0  0  0  0  0  0  0  0
   20.8850   17.6130    3.8960 C   0  0  0  0  0  0  0  0  0  0  0  0
   19.7420   17.7380    2.9110 C   0  0  0  0  0  0  0  0  0  0  0  0
   18.8920   16.4720    2.8650 C   0  0  0  0  0  0  0  0  0  0  0  0
   18.7310   15.7170    4.2190 C   0  0  1  0  0  0  0  0  0  0  0  0
   19.0100   16.6680    5.4440 C   0  0  2  0  0  0  0  0  0  0  0  0
   17.7930   17.5870    5.6740 C   0  0  0  0  0  0  0  0  0  0  0  0
   16.5700   16.7570    6.0460 C   0  0  0  0  0  0  0  0  0  0  0  0
   16.2930   15.6470    5.0720 C   0  0  0  0  0  0  0  0  0  0  0  0
   17.2920   15.1350    4.2290 C   0  0  0  0  0  0  0  0  0  0  0  0
   16.9320   14.1060    3.3350 C   0  0  0  0  0  0  0  0  0  0  0  0
   15.6410   13.5710    3.3120 C   0  0  0  0  0  0  0  0  0  0  0  0
   14.6560   14.0510    4.1780 C   0  0  0  0  0  0  0  0  0  0  0  0
   14.9980   15.0900    5.0520 C   0  0  0  0  0  0  0  0  0  0  0  0
   19.7340   14.5320    4.3010 C   0  0  0  0  0  0  0  0  0  0  0  0
   21.1060   15.8300    7.0070 O   0  0  0  0  0  1  0  0  0  0  0  0
   21.5090   16.7220    6.2070 C   0  0  0  0  0  0  0  0  0  0  0  0
   22.6910   17.1390    6.0320 O   0  0  0  0  0  0  0  0  0  0  0  0
   13.2490   13.4850    4.1870 C   0  0  0  0  0  0  0  0  0  0  0  0
   12.2000   14.5890    4.3400 C   0  0  0  0  0  0  0  0  0  0  0  0
   12.9740   12.6410    2.9400 C   0  0  0  0  0  0  0  0  0  0  0  0
   20.3932   18.6593    7.1434 H   0  0  0  0  0  0  0  0  0  0  0  0
   21.2903   19.3676    5.7577 H   0  0  0  0  0  0  0  0  0  0  0  0
   19.4940   19.3650    5.7577 H   0  0  0  0  0  0  0  0  0  0  0  0
   21.4975   18.5252    3.8433 H   0  0  0  0  0  0  0  0  0  0  0  0
   21.4657   16.7197    3.6227 H   0  0  0  0  0  0  0  0  0  0  0  0
   19.1052   18.5836    3.2101 H   0  0  0  0  0  0  0  0  0  0  0  0
   20.1694   17.8991    1.9103 H   0  0  0  0  0  0  0  0  0  0  0  0
   17.8882   16.7514    2.5123 H   0  0  0  0  0  0  0  0  0  0  0  0
   19.4226   15.7785    2.1960 H   0  0  0  0  0  0  0  0  0  0  0  0
   19.1293   16.0483    6.3450 H   0  0  0  0  0  0  0  0  0  0  0  0
   18.0173   18.2896    6.4901 H   0  0  0  0  0  0  0  0  0  0  0  0
   17.5821   18.1421    4.7480 H   0  0  0  0  0  0  0  0  0  0  0  0
   16.7347   16.3171    7.0407 H   0  0  0  0  0  0  0  0  0  0  0  0
   15.7001   17.4301    6.0325 H   0  0  0  0  0  0  0  0  0  0  0  0
   17.6868   13.7140    2.6374 H   0  0  0  0  0  0  0  0  0  0  0  0
   15.3984   12.7640    2.6049 H   0  0  0  0  0  0  0  0  0  0  0  0
   14.2359   15.4822    5.7415 H   0  0  0  0  0  0  0  0  0  0  0  0
   19.9352   14.2943    5.3560 H   0  0  0  0  0  0  0  0  0  0  0  0
   19.3027   13.6514    3.8025 H   0  0  0  0  0  0  0  0  0  0  0  0
   20.6738   14.8119    3.8025 H   0  0  0  0  0  0  0  0  0  0  0  0
   13.1727   12.8245    5.0633 H   0  0  0  0  0  0  0  0  0  0  0  0
   12.0201   14.7783    5.4085 H   0  0  0  0  0  0  0  0  0  0  0  0
   12.5641   15.5097    3.8607 H   0  0  0  0  0  0  0  0  0  0  0  0
   11.2619   14.2724    3.8607 H   0  0  0  0  0  0  0  0  0  0  0  0
   12.6464   11.6355    3.2427 H   0  0  0  0  0  0  0  0  0  0  0  0
   12.1850   13.1187    2.3406 H   0  0  0  0  0  0  0  0  0  0  0  0
   13.8930   12.5622    2.3406 H   0  0  0  0  0  0  0  0  0  0  0  0
  2  1  1  0
  3  1  1  0
  4  3  1  0
  5  4  1  0
  6  5  1  0
  7  6  1  0
  7  1  1  0
  8  7  1  0
  9  8  1  0
 10  9  1  0
 11 10  2  0
 11  6  1  0
 12 11  1  0
 13 12  2  0
 14 13  1  0
 15 14  2  0
 15 10  1  0
  6 16  1  6
 18 17  1  0
  1 18  1  1
 19 18  2  0
 20 14  1  0
 21 20  1  0
 22 20  1  0
  2 23  1  0
  2 24  1  0
  2 25  1  0
  3 26  1  0
  3 27  1  0
  4 28  1  0
  4 29  1  0
  5 30  1  0
  5 31  1  0
  7 32  1  1
  8 33  1  0
  8 34  1  0
  9 35  1  0
  9 36  1  0
 12 37  1  0
 13 38  1  0
 15 39  1  0
 16 40  1  0
 16 41  1  0
 16 42  1  0
 20 43  1  0
 21 44  1  0
 21 45  1  0
 21 46  1  0
 22 47  1  0
 22 48  1  0
 22 49  1  0
M  CHG  1  17  -1
M  END
$$$$
=
     RDKit          3D

 30 31  0  0  0  0  0  0  0  0999 V2000
   15.9820   14.9360    4.0400 N   0  0  0  0  0  0  0  0  0  0  0  0
   16.8310   13.9780    3.5350 C   0  0  0  0  0  0  0  0  0  0  0  0
   18.5010   13.9880    3.4550 S   0  0  0  0  0  0  0  0  0  0  0  0
   15.8920   12.6610    2.8370 S   0  0  0  0  0  0  0  0  0  0  0  0
   14.3810   13.3530    3.3150 C   0  0  0  0  0  0  0  0  0  0  0  0
   13.2150   12.7280    3.0880 C   0  0  0  0  0  0  0  0  0  0  0  0
   14.6240   14.6740    3.9730 C   0  0  0  0  0  0  0  0  0  0  0  0
   13.7290   15.4270    4.3380 O   0  0  0  0  0  0  0  0  0  0  0  0
   11.8860   13.1870    3.4570 C   0  0  0  0  0  0  0  0  0  0  0  0
   10.6930   12.7270    3.0300 C   0  0  0  0  0  0  0  0  0  0  0  0
   10.5630   11.4120    1.8540 S   0  0  0  0  0  0  0  0  0  0  0  0
    8.7580   11.6490    1.7290 C   0  0  0  0  0  0  0  0  0  0  0  0
    8.3450   12.3160    3.0440 C   0  0  0  0  0  0  0  0  0  0  0  0
    9.4450   13.2000    3.4470 N   0  0  0  0  0  0  0  0  0  0  0  0
    9.2360   13.9890    4.6530 C   0  0  0  0  0  0  0  0  0  0  0  0
   16.4310   16.0710    4.8630 C   0  0  0  0  0  0  0  0  0  0  0  0
   18.1490   15.7380    6.4620 O   0  0  0  0  0  1  0  0  0  0  0  0
   16.8980   15.6680    6.2800 C   0  0  0  0  0  0  0  0  0  0  0  0
   15.9880   15.3120    7.0830 O   0  0  0  0  0  0  0  0  0  0  0  0
   13.2714   11.7619    2.5651 H   0  0  0  0  0  0  0  0  0  0  0  0
   11.8490   14.0170    4.1779 H   0  0  0  0  0  0  0  0  0  0  0  0
    8.5129   12.2973    0.8748 H   0  0  0  0  0  0  0  0  0  0  0  0
    8.2300   10.6974    1.5688 H   0  0  0  0  0  0  0  0  0  0  0  0
    7.4255   12.9016    2.8969 H   0  0  0  0  0  0  0  0  0  0  0  0
    8.1470   11.5611    3.8192 H   0  0  0  0  0  0  0  0  0  0  0  0
    9.4033   13.3574    5.5379 H   0  0  0  0  0  0  0  0  0  0  0  0
    9.9416   14.8328    4.6660 H   0  0  0  0  0  0  0  0  0  0  0  0
    8.2052   14.3728    4.6660 H   0  0  0  0  0  0  0  0  0  0  0  0
   17.2697   16.5623    4.3481 H   0  0  0  0  0  0  0  0  0  0  0  0
   15.5652   16.7378    4.9886 H   0  0  0  0  0  0  0  0  0  0  0  0
  2  1  1  0
  3  2  2  0
  4  2  1  0
  5  4  1  0
  6  5  2  0
  7  5  1  0
  7  1  1  0
  8  7  2  0
  9  6  1  0
 10  9  2  0
 11 10  1  0
 12 11  1  0
 13 12  1  0
 14 13  1  0
 14 10  1  0
 15 14  1  0
 16  1  1  0
 18 16  1  0
 18 17  1  0
 19 18  2  0
  6 20  1  0
  9 21  1  0
 12 22  1  0
 12 23  1  0
 13 24  1  0
 13 25  1  0
 15 26  1  0
 15 27  1  0
 15 28  1  0
 16 29  1  0
 16 30  1  0
M  CHG  1  17  -1
M  END
$$$$
=
     RDKit          3D

 46 49  0  0  0  0  0  0  0  0999 V2000
   23.5090   26.1700   14.7080 C   0  0  0  0  0  0  0  0  0  0  0  0
   24.7070   26.3040   13.9810 C   0  0  0  0  0  0  0  0  0  0  0  0
   25.8820   26.8170   14.5610 C   0  0  0  0  0  0  0  0  0  0  0  0
   27.0930   26.9680   13.8300 N   0  0  0  0  0  0  0  0  0  0  0  0
   28.2410   27.3240   14.5140 C   0  0  0  0  0  0  0  0  0  0  0  0
   28.3040   27.6930   15.8000 C   0  0  0  0  0  0  0  0  0  0  0  0
   27.0560   27.7360   16.5790 C   0  0  0  0  0  0  0  0  0  0  0  0
   26.9640   28.2060   17.7070 O   0  0  0  0  0  0  0  0  0  0  0  0
   25.8370   27.1950   15.9170 C   0  0  0  0  0  0  0  0  0  0  0  0
   24.6570   27.0790   16.6600 C   0  0  0  0  0  0  0  0  0  0  0  0
   23.5130   26.5780   16.0530 C   0  0  0  0  0  0  0  0  0  0  0  0
   22.3880   26.5230   16.7830 F   0  0  0  0  0  0  0  0  0  0  0  0
   19.9750   22.2140   10.9690 C   0  0  0  0  0  0  0  0  0  0  0  0
   20.8620   23.3990   10.6750 C   0  0  0  0  0  0  0  0  0  0  0  0
   21.0520   23.7560    9.5120 O   0  0  0  0  0  0  0  0  0  0  0  0
   21.4330   24.0350   11.7610 N   0  0  0  0  0  0  0  0  0  0  0  0
   21.2490   23.6250   13.1590 C   0  0  0  0  0  0  0  0  0  0  0  0
   22.3230   24.1980   14.0990 C   0  0  0  0  0  0  0  0  0  0  0  0
   22.3750   25.6780   14.0230 N   0  0  0  0  0  0  0  0  0  0  0  0
   22.1000   26.2540   12.6830 C   0  0  0  0  0  0  0  0  0  0  0  0
   22.2600   25.2310   11.5460 C   0  0  0  0  0  0  0  0  0  0  0  0
   29.6560   28.0150   16.3920 C   0  0  0  0  0  0  0  0  0  0  0  0
   30.1030   27.1560   17.2100 O   0  0  0  0  0  0  0  0  0  0  0  0
   30.1320   29.1450   16.0880 O   0  0  0  0  0  1  0  0  0  0  0  0
   27.2350   26.5050   12.4390 C   0  0  0  0  0  0  0  0  0  0  0  0
   28.5890   26.3200   11.7990 C   0  0  0  0  0  0  0  0  0  0  0  0
   27.7470   25.1230   12.1030 C   0  0  0  0  0  0  0  0  0  0  0  0
   24.7252   25.9976   12.9247 H   0  0  0  0  0  0  0  0  0  0  0  0
   29.1863   27.3022   13.9520 H   0  0  0  0  0  0  0  0  0  0  0  0
   24.6358   27.3824   17.7171 H   0  0  0  0  0  0  0  0  0  0  0  0
   19.8806   22.0878   12.0577 H   0  0  0  0  0  0  0  0  0  0  0  0
   18.9799   22.3834   10.5318 H   0  0  0  0  0  0  0  0  0  0  0  0
   20.4180   21.3070   10.5318 H   0  0  0  0  0  0  0  0  0  0  0  0
   20.2628   23.9734   13.4997 H   0  0  0  0  0  0  0  0  0  0  0  0
   21.3315   22.5287   13.1942 H   0  0  0  0  0  0  0  0  0  0  0  0
   22.0899   23.9007   15.1321 H   0  0  0  0  0  0  0  0  0  0  0  0
   23.3011   23.8010   13.7897 H   0  0  0  0  0  0  0  0  0  0  0  0
   21.0680   26.6344   12.6698 H   0  0  0  0  0  0  0  0  0  0  0  0
   22.8344   27.0547   12.5115 H   0  0  0  0  0  0  0  0  0  0  0  0
   23.3156   24.9271   11.4876 H   0  0  0  0  0  0  0  0  0  0  0  0
   21.9310   25.7080   10.6110 H   0  0  0  0  0  0  0  0  0  0  0  0
   26.3278   27.0801   12.2018 H   0  0  0  0  0  0  0  0  0  0  0  0
   28.7492   26.6275   10.7551 H   0  0  0  0  0  0  0  0  0  0  0  0
   29.6140   26.6308   12.0496 H   0  0  0  0  0  0  0  0  0  0  0  0
   28.0410   24.4351   12.9094 H   0  0  0  0  0  0  0  0  0  0  0  0
   27.3639   24.2743   11.5173 H   0  0  0  0  0  0  0  0  0  0  0  0
  2  1  2  0
  3  2  1  0
  4  3  1  0
  5  4  1  0
  6  5  2  0
  7  6  1  0
  8  7  2  0
  9  3  2  0
  9  7  1  0
 10  9  1  0
 11  1  1  0
 11 10  2  0
 12 11  1  0
 14 13  1  0
 15 14  2  0
 16 14  1  0
 17 16  1  0
 18 17  1  0
 19 18  1  0
 19  1  1  0
 20 19  1  0
 21 16  1  0
 21 20  1  0
 22  6  1  0
 23 22  2  0
 24 22  1  0
 25  4  1  0
 26 25  1  0
 27 25  1  0
 27 26  1  0
  2 28  1  0
  5 29  1  0
 10 30  1  0
 13 31  1  0
 13 32  1  0
 13 33  1  0
 17 34  1  0
 17 35  1  0
 18 36  1  0
 18 37  1  0
 20 38  1  0
 20 39  1  0
 21 40  1  0
 21 41  1  0
 25 42  1  0
 26 43  1  0
 26 44  1  0
 27 45  1  0
 27 46  1  0
M  CHG  1  24  -1
M  END
$$$$
=
     RDKit          3D

 31 31  0  0  0  0  0  0  0  0999 V2000
   17.2060   15.0690    4.3450 N   0  0  0  0  0  0  0  0  0  0  0  0
   16.5880   16.0620    5.0850 C   0  0  0  0  0  0  0  0  0  0  0  0
   17.2740   17.1570    5.8180 C   0  0  0  0  0  0  0  0  0  0  0  0
   15.2270   15.8310    5.0270 C   0  0  0  0  0  0  0  0  0  0  0  0
   14.9950   14.7000    4.2150 C   0  0  0  0  0  0  0  0  0  0  0  0
   16.2310   14.2550    3.7720 C   0  0  0  0  0  0  0  0  0  0  0  0
   16.5550   13.1210    2.8530 C   0  0  0  0  0  0  0  0  0  0  0  0
   19.4350   14.6120    5.4310 C   0  0  0  0  0  0  0  0  0  0  0  0
   18.6470   14.8780    4.1460 C   0  0  0  0  0  0  0  0  0  0  0  0
   19.2620   16.0060    3.3190 C   0  0  0  0  0  0  0  0  0  0  0  0
   13.7340   14.1070    3.8890 C   0  0  0  0  0  0  0  0  0  0  0  0
   12.5240   14.5850    4.2220 C   0  0  0  0  0  0  0  0  0  0  0  0
   11.2290   13.8770    3.8290 C   0  0  0  0  0  0  0  0  0  0  0  0
   11.3440   12.8140    3.1590 O   0  0  0  0  0  0  0  0  0  0  0  0
   10.1860   14.4620    4.2380 O   0  0  0  0  0  1  0  0  0  0  0  0
   17.1716   16.9936    6.9010 H   0  0  0  0  0  0  0  0  0  0  0  0
   18.3403   17.1673    5.5479 H   0  0  0  0  0  0  0  0  0  0  0  0
   16.8180   18.1209    5.5479 H   0  0  0  0  0  0  0  0  0  0  0  0
   14.4529   16.4291    5.5300 H   0  0  0  0  0  0  0  0  0  0  0  0
   16.8096   12.2300    3.4457 H   0  0  0  0  0  0  0  0  0  0  0  0
   15.6833   12.9026    2.2186 H   0  0  0  0  0  0  0  0  0  0  0  0
   17.4105   13.3961    2.2186 H   0  0  0  0  0  0  0  0  0  0  0  0
   18.7988   14.8267    6.3023 H   0  0  0  0  0  0  0  0  0  0  0  0
   19.7490   13.5581    5.4571 H   0  0  0  0  0  0  0  0  0  0  0  0
   20.3235   15.2600    5.4571 H   0  0  0  0  0  0  0  0  0  0  0  0
   18.7338   13.9479    3.5651 H   0  0  0  0  0  0  0  0  0  0  0  0
   19.6783   16.7695    3.9926 H   0  0  0  0  0  0  0  0  0  0  0  0
   20.0638   15.6003    2.6845 H   0  0  0  0  0  0  0  0  0  0  0  0
   18.4867   16.4602    2.6845 H   0  0  0  0  0  0  0  0  0  0  0  0
   13.7581   13.1713    3.3111 H   0  0  0  0  0  0  0  0  0  0  0  0
   12.4634   15.5199    4.7984 H   0  0  0  0  0  0  0  0  0  0  0  0
  2  1  1  0
  3  2  1  0
  4  2  2  0
  5  4  1  0
  6  5  2  0
  6  1  1  0
  7  6  1  0
  9  8  1  0
  9  1  1  0
 10  9  1  0
 11  5  1  0
 12 11  2  0
 13 12  1  0
 14 13  2  0
 15 13  1  0
  3 16  1  0
  3 17  1  0
  3 18  1  0
  4 19  1  0
  7 20  1  0
  7 21  1  0
  7 22  1  0
  8 23  1  0
  8 24  1  0
  8 25  1  0
  9 26  1  0
 10 27  1  0
 10 28  1  0
 10 29  1  0
 11 30  1  0
 12 31  1  0
M  CHG  1  15  -1
M  END
$$$$
=
     RDKit          3D

 35 37  0  0  0  0  0  0  0  0999 V2000
   18.9310   15.6160    4.8610 C   0  0  0  0  0  0  0  0  0  0  0  0
   18.9360   14.4230    4.1340 C   0  0  0  0  0  0  0  0  0  0  0  0
   17.7370   13.8530    3.6700 C   0  0  0  0  0  0  0  0  0  0  0  0
   17.8100   12.5390    2.9340 C   0  0  0  0  0  0  0  0  0  0  0  0
   16.5150   12.2230    2.2020 C   0  0  0  0  0  0  0  0  0  0  0  0
   15.3380   12.4880    3.1260 C   0  0  0  0  0  0  0  0  0  0  0  0
   15.2930   13.9060    3.4810 N   0  0  0  0  0  0  0  0  0  0  0  0
   16.4980   14.4680    3.9450 C   0  0  0  0  0  0  0  0  0  0  0  0
   16.5040   15.6940    4.6440 C   0  0  0  0  0  0  0  0  0  0  0  0
   17.7130   16.2510    5.0970 C   0  0  0  0  0  0  0  0  0  0  0  0
   15.2190   16.4050    4.9810 C   0  0  0  0  0  0  0  0  0  0  0  0
   14.0510   15.8980    4.1510 C   0  0  0  0  0  0  0  0  0  0  0  0
   14.0730   14.3790    4.1320 C   0  0  0  0  0  0  0  0  0  0  0  0
   20.9680   17.0870    4.6490 C   0  0  0  0  0  0  0  0  0  0  0  0
   20.2090   16.1850    5.3050 C   0  0  0  0  0  0  0  0  0  0  0  0
   22.2780   17.5830    5.2820 C   0  0  0  0  0  0  0  0  0  0  0  0
   22.5860   17.0690    6.3930 O   0  0  0  0  0  0  0  0  0  0  0  0
   22.9090   18.4640    4.6240 O   0  0  0  0  0  1  0  0  0  0  0  0
   20.3200   18.0120    2.3290 N   0  0  0  0  0  0  0  0  0  0  0  0
   20.6240   17.6420    3.3900 C   0  0  0  0  0  0  0  0  0  0  0  0
   19.8920   13.9221    3.9214 H   0  0  0  0  0  0  0  0  0  0  0  0
   18.6292   12.5873    2.2015 H   0  0  0  0  0  0  0  0  0  0  0  0
   17.9843   11.7443    3.6743 H   0  0  0  0  0  0  0  0  0  0  0  0
   16.4324   12.8608    1.3096 H   0  0  0  0  0  0  0  0  0  0  0  0
   16.5129   11.1663    1.8965 H   0  0  0  0  0  0  0  0  0  0  0  0
   14.4040   12.2100    2.6158 H   0  0  0  0  0  0  0  0  0  0  0  0
   15.4543   11.8891    4.0413 H   0  0  0  0  0  0  0  0  0  0  0  0
   17.6972   17.2037    5.6467 H   0  0  0  0  0  0  0  0  0  0  0  0
   14.9936   16.2449    6.0457 H   0  0  0  0  0  0  0  0  0  0  0  0
   15.3544   17.4737    4.7583 H   0  0  0  0  0  0  0  0  0  0  0  0
   13.1064   16.2466    4.5938 H   0  0  0  0  0  0  0  0  0  0  0  0
   14.1342   16.2814    3.1234 H   0  0  0  0  0  0  0  0  0  0  0  0
   14.0408   14.0011    5.1645 H   0  0  0  0  0  0  0  0  0  0  0  0
   13.1994   14.0117    3.5735 H   0  0  0  0  0  0  0  0  0  0  0  0
   20.5889   15.8386    6.2775 H   0  0  0  0  0  0  0  0  0  0  0  0
  2  1  2  0
  3  2  1  0
  4  3  1  0
  5  4  1  0
  6  5  1  0
  7  6  1  0
  8  7  1  0
  8  3  2  0
  9  8  1  0
 10  9  2  0
 10  1  1  0
 11  9  1  0
 12 11  1  0
 13 12  1  0
 13  7  1  0
 15  1  1  0
 15 14  2  0
 16 14  1  0
 17 16  2  0
 18 16  1  0
 20 19  3  0
 20 14  1  0
  2 21  1  0
  4 22  1  0
  4 23  1  0
  5 24  1  0
  5 25  1  0
  6 26  1  0
  6 27  1  0
 10 28  1  0
 11 29  1  0
 11 30  1  0
 12 31  1  0
 12 32  1  0
 13 33  1  0
 13 34  1  0
 15 35  1  0
M  CHG  1  18  -1
M  END
$$$$
=
     RDKit          3D

 32 32  0  0  0  0  0  0  0  0999 V2000
   18.6650   16.9060    3.1780 O   0  0  0  0  0  0  0  0  0  0  0  0
   18.5380   17.1220    4.3730 C   0  0  0  0  0  0  0  0  0  0  0  0
   19.5420   17.4030    5.2470 N   0  0  0  0  0  0  0  0  0  0  0  0
   21.0080   17.2960    4.9990 C   0  0  0  0  0  0  0  0  0  0  0  0
   21.5380   18.0250    3.7480 C   0  0  0  0  0  0  0  0  0  0  0  0
   22.5070   18.7700    4.5360 O   0  0  0  0  0  0  0  0  0  0  0  0
   21.9090   18.2820    5.7640 C   0  0  0  0  0  0  0  0  0  0  0  0
   21.4510   15.8400    5.1450 C   0  0  0  0  0  0  0  0  0  0  0  0
   20.7590   15.2010    6.3420 C   0  0  0  0  0  0  0  0  0  0  0  0
   19.8540   14.3710    6.0690 O   0  0  0  0  0  0  0  0  0  0  0  0
   21.1830   15.6050    7.4660 O   0  0  0  0  0  1  0  0  0  0  0  0
   17.3630   17.1220    5.0460 O   0  0  0  0  0  0  0  0  0  0  0  0
   16.5970   15.9040    5.2110 C   0  0  0  0  0  0  0  0  0  0  0  0
   17.1470   14.7750    4.3330 C   0  0  0  0  0  0  0  0  0  0  0  0
   16.5110   15.4930    6.6850 C   0  0  0  0  0  0  0  0  0  0  0  0
   15.1850   16.2620    4.7200 C   0  0  0  0  0  0  0  0  0  0  0  0
   19.2579   17.7252    6.1832 H   0  0  0  0  0  0  0  0  0  0  0  0
   21.9945   17.3538    3.0056 H   0  0  0  0  0  0  0  0  0  0  0  0
   20.8344   18.5694    3.1010 H   0  0  0  0  0  0  0  0  0  0  0  0
   21.3505   19.0507    6.3182 H   0  0  0  0  0  0  0  0  0  0  0  0
   22.5597   17.9048    6.5667 H   0  0  0  0  0  0  0  0  0  0  0  0
   21.1860   15.2856    4.2326 H   0  0  0  0  0  0  0  0  0  0  0  0
   22.5397   15.8081    5.2987 H   0  0  0  0  0  0  0  0  0  0  0  0
   17.5389   13.9706    4.9729 H   0  0  0  0  0  0  0  0  0  0  0  0
   16.3411   14.3786    3.6979 H   0  0  0  0  0  0  0  0  0  0  0  0
   17.9559   15.1653    3.6979 H   0  0  0  0  0  0  0  0  0  0  0  0
   16.6947   16.3709    7.3218 H   0  0  0  0  0  0  0  0  0  0  0  0
   15.5092   15.0905    6.8956 H   0  0  0  0  0  0  0  0  0  0  0  0
   17.2674   14.7226    6.8956 H   0  0  0  0  0  0  0  0  0  0  0  0
   14.5271   16.4288    5.5856 H   0  0  0  0  0  0  0  0  0  0  0  0
   15.2295   17.1773    4.1115 H   0  0  0  0  0  0  0  0  0  0  0  0
   14.7880   15.4361    4.1115 H   0  0  0  0  0  0  0  0  0  0  0  0
  2  1  2  0
  3  2  1  0
  4  3  1  0
  5  4  1  0
  6  5  1  0
  7  4  1  0
  7  6  1  0
  8  4  1  0
  9  8  1  0
 10  9  2  0
 11  9  1  0
 12  2  1  0
 13 12  1  0
 14 13  1  0
 15 13  1  0
 16 13  1  0
  3 17  1  0
  5 18  1  0
  5 19  1  0
  7 20  1  0
  7 21  1  0
  8 22  1  0
  8 23  1  0
 14 24  1  0
 14 25  1  0
 14 26  1  0
 15 27  1  0
 15 28  1  0
 15 29  1  0
 16 30  1  0
 16 31  1  0
 16 32  1  0
M  CHG  1  11  -1
M  END
$$$$
=
     RDKit          3D

 29 29  0  0  0  0  0  0  0  0999 V2000
   19.3170   15.7560    2.8630 O   0  0  0  0  0  0  0  0  0  0  0  0
   18.7290   15.8120    3.9350 C   0  0  0  0  0  0  0  0  0  0  0  0
   19.0850   16.6100    4.9880 N   0  0  0  0  0  0  0  0  0  0  0  0
   17.6350   15.0520    4.2490 N   0  0  0  0  0  0  0  0  0  0  0  0
   20.0390   17.6950    4.8560 C   0  0  0  0  0  0  0  0  0  0  0  0
   21.1890   17.5530    5.8410 C   0  0  0  0  0  0  0  0  0  0  0  0
   21.4840   16.0760    6.1040 C   0  0  0  0  0  0  0  0  0  0  0  0
   21.9750   15.4350    5.1260 O   0  0  0  0  0  0  0  0  0  0  0  0
   21.1940   15.6700    7.2630 O   0  0  0  0  0  1  0  0  0  0  0  0
   17.1010   14.0560    3.3580 C   0  0  0  0  0  0  0  0  0  0  0  0
   15.6100   13.9090    3.5260 C   0  0  0  0  0  0  0  0  0  0  0  0
   14.9290   12.8110    2.9800 C   0  0  0  0  0  0  0  0  0  0  0  0
   13.5470   12.6910    3.1320 C   0  0  0  0  0  0  0  0  0  0  0  0
   12.8300   13.6680    3.8220 C   0  0  0  0  0  0  0  0  0  0  0  0
   13.4960   14.7680    4.3590 C   0  0  0  0  0  0  0  0  0  0  0  0
   14.8780   14.8900    4.2100 C   0  0  0  0  0  0  0  0  0  0  0  0
   18.6595   16.4337    5.9093 H   0  0  0  0  0  0  0  0  0  0  0  0
   17.1756   15.1987    5.1591 H   0  0  0  0  0  0  0  0  0  0  0  0
   20.4430   17.6924    3.8329 H   0  0  0  0  0  0  0  0  0  0  0  0
   19.5174   18.6394    5.0703 H   0  0  0  0  0  0  0  0  0  0  0  0
   22.0860   18.0332    5.4230 H   0  0  0  0  0  0  0  0  0  0  0  0
   20.9096   18.0361    6.7889 H   0  0  0  0  0  0  0  0  0  0  0  0
   17.3167   14.3515    2.3206 H   0  0  0  0  0  0  0  0  0  0  0  0
   17.5726   13.0910    3.5956 H   0  0  0  0  0  0  0  0  0  0  0  0
   15.4875   12.0401    2.4288 H   0  0  0  0  0  0  0  0  0  0  0  0
   13.0217   11.8233    2.7063 H   0  0  0  0  0  0  0  0  0  0  0  0
   11.7409   13.5706    3.9421 H   0  0  0  0  0  0  0  0  0  0  0  0
   12.9316   15.5411    4.9010 H   0  0  0  0  0  0  0  0  0  0  0  0
   15.3974   15.7628    4.6325 H   0  0  0  0  0  0  0  0  0  0  0  0
  2  1  2  0
  3  2  1  0
  4  2  1  0
  5  3  1  0
  6  5  1  0
  7  6  1  0
  8  7  2  0
  9  7  1  0
 10  4  1  0
 11 10  1  0
 12 11  2  0
 13 12  1  0
 14 13  2  0
 15 14  1  0
 16 15  2  0
 16 11  1  0
  3 17  1  0
  4 18  1  0
  5 19  1  0
  5 20  1  0
  6 21  1  0
  6 22  1  0
 10 23  1  0
 10 24  1  0
 12 25  1  0
 13 26  1  0
 14 27  1  0
 15 28  1  0
 16 29  1  0
M  CHG  1   9  -1
M  END
$$$$
=
     RDKit          3D

 42 45  0  0  0  0  0  0  0  0999 V2000
   14.3260   14.8110    4.2220 N   0  0  0  0  0  0  0  0  0  0  0  0
   14.8710   15.8300    4.9660 C   0  0  0  0  0  0  0  0  0  0  0  0
   16.2500   15.7640    4.8720 C   0  0  0  0  0  0  0  0  0  0  0  0
   16.5450   14.6090    4.0740 C   0  0  0  0  0  0  0  0  0  0  0  0
   15.3300   14.0480    3.6660 C   0  0  0  0  0  0  0  0  0  0  0  0
   15.2740   12.9230    2.8280 C   0  0  0  0  0  0  0  0  0  0  0  0
   16.4770   12.3470    2.4110 C   0  0  0  0  0  0  0  0  0  0  0  0
   17.6980   12.8750    2.8120 C   0  0  0  0  0  0  0  0  0  0  0  0
   17.7450   14.0040    3.6370 C   0  0  0  0  0  0  0  0  0  0  0  0
   17.2080   16.6930    5.4690 C   0  0  0  0  0  0  0  0  0  0  0  0
   16.9340   17.8570    5.7550 O   0  0  0  0  0  0  0  0  0  0  0  0
   18.5990   16.2380    5.7030 C   0  0  0  0  0  0  0  0  0  0  0  0
   18.7450   15.1230    6.5420 C   0  0  0  0  0  0  0  0  0  0  0  0
   20.0120   14.6320    6.8320 C   0  0  0  0  0  0  0  0  0  0  0  0
   21.1340   15.2470    6.2780 C   0  0  0  0  0  0  0  0  0  0  0  0
   21.0090   16.3510    5.4170 C   0  0  0  0  0  0  0  0  0  0  0  0
   19.7260   16.8640    5.1030 C   0  0  0  0  0  0  0  0  0  0  0  0
   19.6570   17.9600    4.2070 C   0  0  0  0  0  0  0  0  0  0  0  0
   20.8080   18.5430    3.6750 C   0  0  0  0  0  0  0  0  0  0  0  0
   22.0570   18.0380    4.0060 C   0  0  0  0  0  0  0  0  0  0  0  0
   22.1560   16.9470    4.8670 C   0  0  0  0  0  0  0  0  0  0  0  0
   12.8910   14.5630    4.1240 C   0  0  0  0  0  0  0  0  0  0  0  0
   12.3980   13.4960    5.0840 C   0  0  0  0  0  0  0  0  0  0  0  0
   10.2620   14.4150    4.7570 O   0  0  0  0  0  1  0  0  0  0  0  0
   10.9870   13.7830    5.5750 C   0  0  0  0  0  0  0  0  0  0  0  0
   10.7290   13.4040    6.7510 O   0  0  0  0  0  0  0  0  0  0  0  0
   14.3038   16.5760    5.5420 H   0  0  0  0  0  0  0  0  0  0  0  0
   14.3079   12.5056    2.5079 H   0  0  0  0  0  0  0  0  0  0  0  0
   16.4570   11.4633    1.7562 H   0  0  0  0  0  0  0  0  0  0  0  0
   18.6337   12.4024    2.4787 H   0  0  0  0  0  0  0  0  0  0  0  0
   18.7153   14.4204    3.9453 H   0  0  0  0  0  0  0  0  0  0  0  0
   17.8559   14.6373    6.9704 H   0  0  0  0  0  0  0  0  0  0  0  0
   20.1293   13.7624    7.4954 H   0  0  0  0  0  0  0  0  0  0  0  0
   22.1355   14.8611    6.5192 H   0  0  0  0  0  0  0  0  0  0  0  0
   18.6725   18.3608    3.9241 H   0  0  0  0  0  0  0  0  0  0  0  0
   20.7249   19.4025    2.9936 H   0  0  0  0  0  0  0  0  0  0  0  0
   22.9660   18.4973    3.5902 H   0  0  0  0  0  0  0  0  0  0  0  0
   23.1485   16.5459    5.1202 H   0  0  0  0  0  0  0  0  0  0  0  0
   12.3592   15.5009    4.3418 H   0  0  0  0  0  0  0  0  0  0  0  0
   12.6925   14.2002    3.1047 H   0  0  0  0  0  0  0  0  0  0  0  0
   12.4046   12.5239    4.5692 H   0  0  0  0  0  0  0  0  0  0  0  0
   13.0675   13.4870    5.9568 H   0  0  0  0  0  0  0  0  0  0  0  0
  2  1  1  0
  3  2  2  0
  4  3  1  0
  5  1  1  0
  5  4  2  0
  6  5  1  0
  7  6  2  0
  8  7  1  0
  9  8  2  0
  9  4  1  0
 10  3  1  0
 11 10  2  0
 12 10  1  0
 13 12  2  0
 14 13  1  0
 15 14  2  0
 16 15  1  0
 17 12  1  0
 17 16  2  0
 18 17  1  0
 19 18  2  0
 20 19  1  0
 21 16  1  0
 21 20  2  0
 22  1  1  0
 23 22  1  0
 25 24  1  0
 25 23  1  0
 26 25  2  0
  2 27  1  0
  6 28  1  0
  7 29  1  0
  8 30  1  0
  9 31  1  0
 13 32  1  0
 14 33  1  0
 15 34  1  0
 18 35  1  0
 19 36  1  0
 20 37  1  0
 21 38  1  0
 22 39  1  0
 22 40  1  0
 23 41  1  0
 23 42  1  0
M  CHG  1  24  -1
M  END
$$$$
=
     RDKit          3D

 28 30  0  0  0  0  0  0  0  0999 V2000
   17.9040   16.1160    4.6050 C   0  0  0  0  0  0  0  0  0  0  0  0
   17.3810   16.4570    5.8310 C   0  0  0  0  0  0  0  0  0  0  0  0
   16.0980   15.8630    5.8920 C   0  0  0  0  0  0  0  0  0  0  0  0
   15.9130   15.1880    4.7000 C   0  0  0  0  0  0  0  0  0  0  0  0
   17.0230   15.3420    3.9160 O   0  0  0  0  0  0  0  0  0  0  0  0
   14.8300   14.3840    4.1350 C   0  0  0  0  0  0  0  0  0  0  0  0
   13.4840   14.6990    4.3840 C   0  0  0  0  0  0  0  0  0  0  0  0
   12.4520   13.9280    3.8400 C   0  0  0  0  0  0  0  0  0  0  0  0
   12.7630   12.8350    3.0450 C   0  0  0  0  0  0  0  0  0  0  0  0
   14.0840   12.4980    2.7810 C   0  0  0  0  0  0  0  0  0  0  0  0
   15.1150   13.2710    3.3250 C   0  0  0  0  0  0  0  0  0  0  0  0
   11.7770   12.0930    2.5230 F   0  0  0  0  0  0  0  0  0  0  0  0
   19.6280   18.0220    4.0470 C   0  0  1  0  0  0  0  0  0  0  0  0
   19.4340   17.2340    2.7680 C   0  0  0  0  0  0  0  0  0  0  0  0
   19.3020   16.5400    4.0920 C   0  0  2  0  0  0  0  0  0  0  0  0
   21.1340   18.7100    5.6970 O   0  0  0  0  0  1  0  0  0  0  0  0
   20.9800   18.4120    4.4720 C   0  0  0  0  0  0  0  0  0  0  0  0
   21.8920   18.4330    3.5890 O   0  0  0  0  0  0  0  0  0  0  0  0
   17.8633   17.0685    6.6078 H   0  0  0  0  0  0  0  0  0  0  0  0
   15.3851   15.9263    6.7273 H   0  0  0  0  0  0  0  0  0  0  0  0
   13.2381   15.5649    5.0162 H   0  0  0  0  0  0  0  0  0  0  0  0
   11.4018   14.1864    4.0410 H   0  0  0  0  0  0  0  0  0  0  0  0
   14.3180   11.6291    2.1484 H   0  0  0  0  0  0  0  0  0  0  0  0
   16.1617   13.0047    3.1164 H   0  0  0  0  0  0  0  0  0  0  0  0
   19.1926   18.9510    4.4436 H   0  0  0  0  0  0  0  0  0  0  0  0
   18.5423   17.4061    2.1473 H   0  0  0  0  0  0  0  0  0  0  0  0
   20.0347   17.0670    1.8618 H   0  0  0  0  0  0  0  0  0  0  0  0
   19.7627   15.6460    4.5376 H   0  0  0  0  0  0  0  0  0  0  0  0
  2  1  2  0
  3  2  1  0
  4  3  2  0
  5  4  1  0
  5  1  1  0
  6  4  1  0
  7  6  2  0
  8  7  1  0
  9  8  2  0
 10  9  1  0
 11 10  2  0
 11  6  1  0
 12  9  1  0
 14 13  1  0
 15  1  1  0
 15 14  1  0
 15 13  1  0
 17 13  1  0
 17 16  1  0
 18 17  2  0
  2 19  1  0
  3 20  1  0
  7 21  1  0
  8 22  1  0
 10 23  1  0
 11 24  1  0
 13 25  1  1
 14 26  1  0
 14 27  1  0
 15 28  1  6
M  CHG  1  16  -1
M  END
$$$$
=
     RDKit          3D

 50 52  0  0  0  0  0  0  0  0999 V2000
   15.1780   14.9700    3.9300 C   0  0  2  0  0  0  0  0  0  0  0  0
   15.5230   15.6880    5.2430 C   0  0  0  0  0  0  0  0  0  0  0  0
   15.2900   15.0240    6.2930 O   0  0  0  0  0  0  0  0  0  0  0  0
   15.9740   16.8620    5.1360 O   0  0  0  0  0  1  0  0  0  0  0  0
   14.5180   13.6120    4.2440 C   0  0  0  0  0  0  0  0  0  0  0  0
   10.7610   13.9790    4.8160 C   0  0  0  0  0  0  0  0  0  0  0  0
   12.1450   14.0670    4.9810 C   0  0  0  0  0  0  0  0  0  0  0  0
   13.0210   13.5370    4.0230 C   0  0  0  0  0  0  0  0  0  0  0  0
   12.4960   12.9360    2.8680 C   0  0  0  0  0  0  0  0  0  0  0  0
   11.1150   12.8520    2.6710 C   0  0  0  0  0  0  0  0  0  0  0  0
   10.2560   13.3710    3.6560 C   0  0  0  0  0  0  0  0  0  0  0  0
    9.4500   13.5590    6.7440 C   0  0  0  0  0  0  0  0  0  0  0  0
    9.8440   14.4640    5.7170 O   0  0  0  0  0  0  0  0  0  0  0  0
    8.8920   13.3040    3.4580 O   0  0  0  0  0  0  0  0  0  0  0  0
    8.4660   14.4540    2.7290 C   0  0  0  0  0  0  0  0  0  0  0  0
   10.5120   12.2860    1.5740 O   0  0  0  0  0  0  0  0  0  0  0  0
   10.2370   10.8950    1.6340 C   0  0  0  0  0  0  0  0  0  0  0  0
   16.3580   14.8300    2.9600 C   0  0  0  0  0  0  0  0  0  0  0  0
   17.6300   14.1730    3.4760 C   0  0  0  0  0  0  0  0  0  0  0  0
   17.8610   12.9730    3.3040 O   0  0  0  0  0  0  0  0  0  0  0  0
   18.7070   14.9860    4.0660 C   0  0  0  0  0  0  0  0  0  0  0  0
   19.2830   14.5940    5.2890 C   0  0  0  0  0  0  0  0  0  0  0  0
   20.3240   15.3420    5.8450 C   0  0  0  0  0  0  0  0  0  0  0  0
   20.7600   16.4490    5.1470 C   0  0  0  0  0  0  0  0  0  0  0  0
   20.2010   16.8170    3.9420 C   0  0  0  0  0  0  0  0  0  0  0  0
   19.1730   16.1040    3.3650 C   0  0  0  0  0  0  0  0  0  0  0  0
   20.7810   17.9330    3.4210 O   0  0  0  0  0  0  0  0  0  0  0  0
   21.7360   18.2450    4.4560 C   0  0  0  0  0  0  0  0  0  0  0  0
   21.7590   17.2870    5.5310 O   0  0  0  0  0  0  0  0  0  0  0  0
   14.4621   15.6079    3.3909 H   0  0  0  0  0  0  0  0  0  0  0  0
   14.9914   12.8515    3.6056 H   0  0  0  0  0  0  0  0  0  0  0  0
   14.6683   13.4501    5.3216 H   0  0  0  0  0  0  0  0  0  0  0  0
   12.5539   14.5593    5.8757 H   0  0  0  0  0  0  0  0  0  0  0  0
   13.1794   12.5266    2.1095 H   0  0  0  0  0  0  0  0  0  0  0  0
    9.6471   14.0116    7.7270 H   0  0  0  0  0  0  0  0  0  0  0  0
    8.3759   13.3418    6.6490 H   0  0  0  0  0  0  0  0  0  0  0  0
   10.0228   12.6247    6.6490 H   0  0  0  0  0  0  0  0  0  0  0  0
    8.1724   15.2465    3.4331 H   0  0  0  0  0  0  0  0  0  0  0  0
    9.2908   14.8131    2.0959 H   0  0  0  0  0  0  0  0  0  0  0  0
    7.6063   14.1891    2.0959 H   0  0  0  0  0  0  0  0  0  0  0  0
   10.1745   10.5786    2.6857 H   0  0  0  0  0  0  0  0  0  0  0  0
    9.2806   10.6883    1.1314 H   0  0  0  0  0  0  0  0  0  0  0  0
   11.0428   10.3399    1.1314 H   0  0  0  0  0  0  0  0  0  0  0  0
   16.0081   14.2373    2.1019 H   0  0  0  0  0  0  0  0  0  0  0  0
   16.6541   15.8652    2.7347 H   0  0  0  0  0  0  0  0  0  0  0  0
   18.9130   13.6974    5.8079 H   0  0  0  0  0  0  0  0  0  0  0  0
   20.7796   15.0582    6.8051 H   0  0  0  0  0  0  0  0  0  0  0  0
   18.7388   16.3997    2.3985 H   0  0  0  0  0  0  0  0  0  0  0  0
   22.7380   18.2834    4.0037 H   0  0  0  0  0  0  0  0  0  0  0  0
   21.4344   19.2091    4.8913 H   0  0  0  0  0  0  0  0  0  0  0  0
  2  1  1  0
  3  2  2  0
  4  2  1  0
  5  1  1  0
  7  6  2  0
  8  7  1  0
  8  5  1  0
  9  8  2  0
 10  9  1  0
 11  6  1  0
 11 10  2  0
 13  6  1  0
 13 12  1  0
 14 11  1  0
 15 14  1  0
 16 10  1  0
 17 16  1  0
 18  1  1  0
 19 18  1  0
 20 19  2  0
 21 19  1  0
 22 21  2  0
 23 22  1  0
 24 23  2  0
 25 24  1  0
 26 21  1  0
 26 25  2  0
 27 25  1  0
 28 27  1  0
 29 28  1  0
 29 24  1  0
  1 30  1  6
  5 31  1  0
  5 32  1  0
  7 33  1  0
  9 34  1  0
 12 35  1  0
 12 36  1  0
 12 37  1  0
 15 38  1  0
 15 39  1  0
 15 40  1  0
 17 41  1  0
 17 42  1  0
 17 43  1  0
 18 44  1  0
 18 45  1  0
 22 46  1  0
 23 47  1  0
 26 48  1  0
 28 49  1  0
 28 50  1  0
M  CHG  1   4  -1
M  END
$$$$
=
     RDKit          3D

 23 23  0  0  0  0  0  0  0  0999 V2000
   18.7530   17.1490    4.9150 C   0  0  0  0  0  0  0  0  0  0  0  0
   18.8990   16.1520    3.9390 C   0  0  0  0  0  0  0  0  0  0  0  0
   17.8730   15.2340    3.7080 C   0  0  0  0  0  0  0  0  0  0  0  0
   16.7020   15.3120    4.4520 C   0  0  0  0  0  0  0  0  0  0  0  0
   16.5330   16.2910    5.4210 C   0  0  0  0  0  0  0  0  0  0  0  0
   17.5580   17.2030    5.6430 C   0  0  0  0  0  0  0  0  0  0  0  0
   17.3830   18.1440    6.5840 F   0  0  0  0  0  0  0  0  0  0  0  0
   15.7200   14.4270    4.2330 F   0  0  0  0  0  0  0  0  0  0  0  0
   19.8570   18.1540    5.1530 C   0  0  0  0  0  0  0  0  0  0  0  0
   21.2490   17.5970    4.8410 C   0  0  1  0  0  0  0  0  0  0  0  0
   22.1290   18.6690    4.1980 C   0  0  0  0  0  0  0  0  0  0  0  0
   21.5490   16.1830    6.7360 O   0  0  0  0  0  1  0  0  0  0  0  0
   22.0330   17.1530    6.0860 C   0  0  0  0  0  0  0  0  0  0  0  0
   23.0780   17.8250    6.3190 O   0  0  0  0  0  0  0  0  0  0  0  0
   19.8275   16.0932    3.3522 H   0  0  0  0  0  0  0  0  0  0  0  0
   17.9908   14.4537    2.9417 H   0  0  0  0  0  0  0  0  0  0  0  0
   15.6020   16.3444    6.0044 H   0  0  0  0  0  0  0  0  0  0  0  0
   19.6780   19.0300    4.5122 H   0  0  0  0  0  0  0  0  0  0  0  0
   19.8389   18.4167    6.2210 H   0  0  0  0  0  0  0  0  0  0  0  0
   21.0531   16.7371    4.1836 H   0  0  0  0  0  0  0  0  0  0  0  0
   22.6168   19.2633    4.9847 H   0  0  0  0  0  0  0  0  0  0  0  0
   22.8959   18.1877    3.5733 H   0  0  0  0  0  0  0  0  0  0  0  0
   21.5075   19.3274    3.5733 H   0  0  0  0  0  0  0  0  0  0  0  0
  2  1  2  0
  3  2  1  0
  4  3  2  0
  5  4  1  0
  6  5  2  0
  6  1  1  0
  7  6  1  0
  8  4  1  0
  9  1  1  0
 10  9  1  0
 11 10  1  0
 13 12  1  0
 13 10  1  0
 14 13  2  0
  2 15  1  0
  3 16  1  0
  5 17  1  0
  9 18  1  0
  9 19  1  0
 10 20  1  6
 11 21  1  0
 11 22  1  0
 11 23  1  0
M  CHG  1  12  -1
M  END
$$$$
=
     RDKit          3D

 18 18  0  0  0  0  0  0  0  0999 V2000
   20.4040   16.8350    5.1430 N   0  0  0  0  0  0  0  0  0  0  0  0
   20.6260   17.5510    3.9900 C   0  0  0  0  0  0  0  0  0  0  0  0
   19.6830   17.6230    2.6090 S   0  0  0  0  0  0  0  0  0  0  0  0
   22.1720   18.3890    4.0750 S   0  0  0  0  0  0  0  0  0  0  0  0
   22.4080   17.9500    5.8080 C   0  0  0  0  0  0  0  0  0  0  0  0
   21.4180   16.8550    6.0860 C   0  0  0  0  0  0  0  0  0  0  0  0
   21.5630   16.0580    7.0090 O   0  0  0  0  0  0  0  0  0  0  0  0
   19.1670   16.1200    5.4640 C   0  0  0  0  0  0  0  0  0  0  0  0
   19.2150   14.6390    5.1070 C   0  0  0  0  0  0  0  0  0  0  0  0
   18.8220   13.5050    3.0850 O   0  0  0  0  0  1  0  0  0  0  0  0
   18.3620   14.3740    3.8750 C   0  0  0  0  0  0  0  0  0  0  0  0
   17.3110   15.0730    3.7930 O   0  0  0  0  0  0  0  0  0  0  0  0
   23.4342   17.5918    5.9770 H   0  0  0  0  0  0  0  0  0  0  0  0
   22.2556   18.8143    6.4711 H   0  0  0  0  0  0  0  0  0  0  0  0
   18.9808   16.2126    6.5442 H   0  0  0  0  0  0  0  0  0  0  0  0
   18.3643   16.5733    4.8638 H   0  0  0  0  0  0  0  0  0  0  0  0
   20.2552   14.3476    4.8997 H   0  0  0  0  0  0  0  0  0  0  0  0
   18.8245   14.0508    5.9505 H   0  0  0  0  0  0  0  0  0  0  0  0
  2  1  1  0
  3  2  2  0
  4  2  1  0
  5  4  1  0
  6  1  1  0
  6  5  1  0
  7  6  2  0
  8  1  1  0
  9  8  1  0
 11 10  1  0
 11  9  1  0
 12 11  2  0
  5 13  1  0
  5 14  1  0
  8 15  1  0
  8 16  1  0
  9 17  1  0
  9 18  1  0
M  CHG  1  10  -1
M  END
$$$$
=
     RDKit          3D

 30 32  0  0  0  0  0  0  0  0999 V2000
   29.1500   24.6090   13.9630 N   0  0  0  0  0  0  0  0  0  0  0  0
   29.7910   23.3830   14.0120 N   0  0  0  0  0  0  0  0  0  0  0  0
   30.7660   23.4710   14.8940 N   0  0  0  0  0  0  0  0  0  0  0  0
   30.8490   24.7210   15.4060 N   0  0  0  0  0  0  0  0  0  0  0  0
   29.9050   25.4440   14.8240 C   0  0  0  0  0  0  0  0  0  0  0  0
   29.7580   26.8730   15.0780 C   0  0  0  0  0  0  0  0  0  0  0  0
   28.8410   27.6460   14.3550 C   0  0  0  0  0  0  0  0  0  0  0  0
   28.7610   29.0260   14.5620 C   0  0  0  0  0  0  0  0  0  0  0  0
   29.6080   29.6460   15.4780 C   0  0  0  0  0  0  0  0  0  0  0  0
   30.5380   28.8880   16.1890 C   0  0  0  0  0  0  0  0  0  0  0  0
   30.6160   27.5090   15.9840 C   0  0  0  0  0  0  0  0  0  0  0  0
   28.0000   24.8380   13.1910 C   0  0  0  0  0  0  0  0  0  0  0  0
   26.7660   24.9060   13.7330 C   0  0  0  0  0  0  0  0  0  0  0  0
   25.5280   25.1770   13.0770 C   0  0  0  0  0  0  0  0  0  0  0  0
   24.8340   26.3480   12.7860 C   0  0  0  0  0  0  0  0  0  0  0  0
   23.6330   26.0060   12.1160 C   0  0  0  0  0  0  0  0  0  0  0  0
   23.6330   24.6420   12.0310 C   0  0  0  0  0  0  0  0  0  0  0  0
   24.7490   24.1320   12.6020 O   0  0  0  0  0  0  0  0  0  0  0  0
   28.4870   26.2410   11.3830 O   0  0  0  0  0  1  0  0  0  0  0  0
   28.2300   25.0510   11.7180 C   0  0  0  0  0  0  0  0  0  0  0  0
   28.1590   24.0060   11.0130 O   0  0  0  0  0  0  0  0  0  0  0  0
   28.1797   27.1642   13.6198 H   0  0  0  0  0  0  0  0  0  0  0  0
   28.0278   29.6237   14.0005 H   0  0  0  0  0  0  0  0  0  0  0  0
   29.5433   30.7320   15.6403 H   0  0  0  0  0  0  0  0  0  0  0  0
   31.2095   29.3761   16.9107 H   0  0  0  0  0  0  0  0  0  0  0  0
   31.3582   26.9167   16.5392 H   0  0  0  0  0  0  0  0  0  0  0  0
   26.7070   24.7304   14.8173 H   0  0  0  0  0  0  0  0  0  0  0  0
   25.1627   27.3679   13.0345 H   0  0  0  0  0  0  0  0  0  0  0  0
   22.8613   26.6950   11.7421 H   0  0  0  0  0  0  0  0  0  0  0  0
   22.8375   24.0427   11.5640 H   0  0  0  0  0  0  0  0  0  0  0  0
  2  1  1  0
  3  2  2  0
  4  3  1  0
  5  4  2  0
  5  1  1  0
  6  5  1  0
  7  6  2  0
  8  7  1  0
  9  8  2  0
 10  9  1  0
 11  6  1  0
 11 10  2  0
 12  1  1  0
 13 12  2  0
 14 13  1  0
 15 14  2  0
 16 15  1  0
 17 16  2  0
 18 17  1  0
 18 14  1  0
 20 19  1  0
 20 12  1  0
 21 20  2  0
  7 22  1  0
  8 23  1  0
  9 24  1  0
 10 25  1  0
 11 26  1  0
 13 27  1  0
 15 28  1  0
 16 29  1  0
 17 30  1  0
M  CHG  1  19  -1
M  END
$$$$
=
     RDKit          3D

 26 26  0  0  0  0  0  0  0  0999 V2000
   16.1880   15.1050    3.9000 C   0  0  0  0  0  0  0  0  0  0  0  0
   16.8260   16.2210    4.4780 C   0  0  0  0  0  0  0  0  0  0  0  0
   18.2180   16.2740    4.6320 C   0  0  0  0  0  0  0  0  0  0  0  0
   18.9810   15.1780    4.2140 C   0  0  0  0  0  0  0  0  0  0  0  0
   18.3630   14.0630    3.6440 C   0  0  0  0  0  0  0  0  0  0  0  0
   16.9650   14.0050    3.4790 C   0  0  0  0  0  0  0  0  0  0  0  0
   16.3500   12.7700    2.8500 C   0  0  0  0  0  0  0  0  0  0  0  0
   15.5900   13.0520    1.7570 F   0  0  0  0  0  0  0  0  0  0  0  0
   15.5710   12.0530    3.7010 F   0  0  0  0  0  0  0  0  0  0  0  0
   17.2930   11.8850    2.4020 F   0  0  0  0  0  0  0  0  0  0  0  0
   18.8770   17.4690    5.2720 C   0  0  0  0  0  0  0  0  0  0  0  0
   18.0600   18.1600    6.1130 F   0  0  0  0  0  0  0  0  0  0  0  0
   19.3160   18.3840    4.3580 F   0  0  0  0  0  0  0  0  0  0  0  0
   19.9760   17.1330    6.0040 F   0  0  0  0  0  0  0  0  0  0  0  0
   14.6760   15.1390    3.7880 C   0  0  0  0  0  0  0  0  0  0  0  0
   14.0080   14.5980    5.0450 C   0  0  0  0  0  0  0  0  0  0  0  0
   12.7860   13.5630    3.3230 O   0  0  0  0  0  1  0  0  0  0  0  0
   12.7960   13.8160    4.5610 C   0  0  0  0  0  0  0  0  0  0  0  0
   11.9580   13.5160    5.4560 O   0  0  0  0  0  0  0  0  0  0  0  0
   16.2162   17.0716    4.8167 H   0  0  0  0  0  0  0  0  0  0  0  0
   20.0742   15.1948    4.3351 H   0  0  0  0  0  0  0  0  0  0  0  0
   18.9800   13.2130    3.3173 H   0  0  0  0  0  0  0  0  0  0  0  0
   14.3530   16.1788    3.6315 H   0  0  0  0  0  0  0  0  0  0  0  0
   14.3796   14.5035    2.9404 H   0  0  0  0  0  0  0  0  0  0  0  0
   14.6972   13.9380    5.5922 H   0  0  0  0  0  0  0  0  0  0  0  0
   13.7218   15.4066    5.7336 H   0  0  0  0  0  0  0  0  0  0  0  0
  2  1  2  0
  3  2  1  0
  4  3  2  0
  5  4  1  0
  6  1  1  0
  6  5  2  0
  7  6  1  0
  8  7  1  0
  9  7  1  0
 10  7  1  0
 11  3  1  0
 12 11  1  0
 13 11  1  0
 14 11  1  0
 15  1  1  0
 16 15  1  0
 18 17  1  0
 18 16  1  0
 19 18  2  0
  2 20  1  0
  4 21  1  0
  5 22  1  0
 15 23  1  0
 15 24  1  0
 16 25  1  0
 16 26  1  0
M  CHG  1  17  -1
M  END
$$$$
=
     RDKit          3D

 44 46  0  0  0  0  0  0  0  0999 V2000
   18.1090   15.4600    4.4570 N   0  0  0  0  0  0  0  0  0  0  0  0
   17.3480   16.4300    5.0730 C   0  0  0  0  0  0  0  0  0  0  0  0
   17.8580   17.7950    5.8840 S   0  0  0  0  0  0  0  0  0  0  0  0
   15.6410   16.0280    4.9240 S   0  0  0  0  0  0  0  0  0  0  0  0
   15.9470   14.5970    4.0330 C   0  0  0  0  0  0  0  0  0  0  0  0
   15.0910   13.6900    3.5350 C   0  0  0  0  0  0  0  0  0  0  0  0
   17.4190   14.4170    3.8650 C   0  0  0  0  0  0  0  0  0  0  0  0
   17.9160   13.4560    3.2910 O   0  0  0  0  0  0  0  0  0  0  0  0
   13.6290   13.6030    3.5540 C   0  0  0  0  0  0  0  0  0  0  0  0
   13.0300   12.7120    2.7450 C   0  0  0  0  0  0  0  0  0  0  0  0
   11.5790   12.5990    2.7570 C   0  0  0  0  0  0  0  0  0  0  0  0
   10.8230   13.4990    3.5050 C   0  0  0  0  0  0  0  0  0  0  0  0
   11.3680   14.5070    4.2440 O   0  0  0  0  0  0  0  0  0  0  0  0
   12.7920   14.4950    4.4470 C   0  0  0  0  0  0  0  0  0  0  0  0
    9.4290   13.4200    3.5010 C   0  0  0  0  0  0  0  0  0  0  0  0
    8.7850   12.4310    2.7580 C   0  0  0  0  0  0  0  0  0  0  0  0
    9.5360   11.5250    2.0120 C   0  0  0  0  0  0  0  0  0  0  0  0
   10.9300   11.6100    2.0080 C   0  0  0  0  0  0  0  0  0  0  0  0
   19.5680   15.4900    4.3460 C   0  0  0  0  0  0  0  0  0  0  0  0
   20.2350   14.6800    5.4610 C   0  0  0  0  0  0  0  0  0  0  0  0
   20.7710   15.5980    6.5600 C   0  0  0  0  0  0  0  0  0  0  0  0
   22.0350   16.3610    6.1530 C   0  0  0  0  0  0  0  0  0  0  0  0
   21.8010   17.8520    5.9320 C   0  0  0  0  0  0  0  0  0  0  0  0
   23.8230   18.6660    5.0520 O   0  0  0  0  0  1  0  0  0  0  0  0
   22.6030   18.4680    4.7800 C   0  0  0  0  0  0  0  0  0  0  0  0
   21.9710   18.7080    3.7160 O   0  0  0  0  0  0  0  0  0  0  0  0
   15.5806   12.8540    3.0141 H   0  0  0  0  0  0  0  0  0  0  0  0
   13.6309   12.0742    2.0801 H   0  0  0  0  0  0  0  0  0  0  0  0
   13.1510   15.5256    4.3091 H   0  0  0  0  0  0  0  0  0  0  0  0
   12.9227   14.0754    5.4554 H   0  0  0  0  0  0  0  0  0  0  0  0
    8.8371   14.1398    4.0855 H   0  0  0  0  0  0  0  0  0  0  0  0
    7.6869   12.3663    2.7609 H   0  0  0  0  0  0  0  0  0  0  0  0
    9.0310   10.7428    1.4262 H   0  0  0  0  0  0  0  0  0  0  0  0
   11.5205   10.8970    1.4139 H   0  0  0  0  0  0  0  0  0  0  0  0
   19.8608   15.0672    3.3736 H   0  0  0  0  0  0  0  0  0  0  0  0
   19.8984   16.5354    4.4355 H   0  0  0  0  0  0  0  0  0  0  0  0
   19.4962   13.9911    5.8964 H   0  0  0  0  0  0  0  0  0  0  0  0
   21.0780   14.1195    5.0306 H   0  0  0  0  0  0  0  0  0  0  0  0
   19.9897   16.3289    6.8155 H   0  0  0  0  0  0  0  0  0  0  0  0
   21.0386   14.9592    7.4146 H   0  0  0  0  0  0  0  0  0  0  0  0
   22.7856   16.2404    6.9480 H   0  0  0  0  0  0  0  0  0  0  0  0
   22.3719   15.9407    5.1939 H   0  0  0  0  0  0  0  0  0  0  0  0
   20.7317   18.0026    5.7226 H   0  0  0  0  0  0  0  0  0  0  0  0
   22.1408   18.3565    6.8485 H   0  0  0  0  0  0  0  0  0  0  0  0
  2  1  1  0
  3  2  2  0
  4  2  1  0
  5  4  1  0
  6  5  2  0
  7  5  1  0
  7  1  1  0
  8  7  2  0
  9  6  1  0
 10  9  2  0
 11 10  1  0
 12 11  2  0
 13 12  1  0
 14 13  1  0
 14  9  1  0
 15 12  1  0
 16 15  2  0
 17 16  1  0
 18 17  2  0
 18 11  1  0
 19  1  1  0
 20 19  1  0
 21 20  1  0
 22 21  1  0
 23 22  1  0
 25 24  1  0
 25 23  1  0
 26 25  2  0
  6 27  1  0
 10 28  1  0
 14 29  1  0
 14 30  1  0
 15 31  1  0
 16 32  1  0
 17 33  1  0
 18 34  1  0
 19 35  1  0
 19 36  1  0
 20 37  1  0
 20 38  1  0
 21 39  1  0
 21 40  1  0
 22 41  1  0
 22 42  1  0
 23 43  1  0
 23 44  1  0
M  CHG  1  24  -1
M  END
$$$$
=
     RDKit          3D

 25 25  0  0  0  0  0  0  0  0999 V2000
   16.5010   15.2760    4.6010 N   0  0  0  0  0  0  0  0  0  0  0  0
   16.0370   15.7810    5.7810 N   0  0  0  0  0  0  0  0  0  0  0  0
   17.1510   15.9730    6.4970 C   0  0  0  0  0  0  0  0  0  0  0  0
   18.3050   15.5880    5.8020 C   0  0  0  0  0  0  0  0  0  0  0  0
   17.8610   15.1630    4.5710 C   0  0  0  0  0  0  0  0  0  0  0  0
   18.7560   14.7090    3.4060 C   0  0  0  0  0  0  0  0  0  0  0  0
   18.7230   13.4750    3.1430 O   0  0  0  0  0  0  0  0  0  0  0  0
   19.4500   15.6010    2.8430 O   0  0  0  0  0  1  0  0  0  0  0  0
   19.6410   15.6350    6.2950 N   0  0  0  0  0  4  0  0  0  0  0  0
   20.0850   14.5810    6.7770 O   0  0  0  0  0  0  0  0  0  0  0  0
   20.3000   16.6520    6.0340 O   0  0  0  0  0  1  0  0  0  0  0  0
   15.5300   14.9500    3.5720 C   0  0  0  0  0  0  0  0  0  0  0  0
   13.3490   13.6550    3.8440 C   0  0  0  0  0  0  0  0  0  0  0  0
   14.8730   13.5700    3.7540 C   0  0  0  0  0  0  0  0  0  0  0  0
   15.2720   12.6510    2.5980 C   0  0  0  0  0  0  0  0  0  0  0  0
   17.1598   16.3865    7.5163 H   0  0  0  0  0  0  0  0  0  0  0  0
   14.7398   15.7151    3.5857 H   0  0  0  0  0  0  0  0  0  0  0  0
   16.0728   14.9232    2.6156 H   0  0  0  0  0  0  0  0  0  0  0  0
   13.0445   13.6720    4.9009 H   0  0  0  0  0  0  0  0  0  0  0  0
   13.0031   14.5738    3.3479 H   0  0  0  0  0  0  0  0  0  0  0  0
   12.9030   12.7803    3.3479 H   0  0  0  0  0  0  0  0  0  0  0  0
   15.2347   13.1587    4.7080 H   0  0  0  0  0  0  0  0  0  0  0  0
   15.6798   11.7118    3.0001 H   0  0  0  0  0  0  0  0  0  0  0  0
   14.3877   12.4325    1.9813 H   0  0  0  0  0  0  0  0  0  0  0  0
   16.0354   13.1479    1.9813 H   0  0  0  0  0  0  0  0  0  0  0  0
  2  1  1  0
  3  2  2  0
  4  3  1  0
  5  1  1  0
  5  4  2  0
  6  5  1  0
  7  6  2  0
  8  6  1  0
  9  4  1  0
 10  9  2  0
 11  9  1  0
 12  1  1  0
 14 13  1  0
 14 12  1  0
 15 14  1  0
  3 16  1  0
 12 17  1  0
 12 18  1  0
 13 19  1  0
 13 20  1  0
 13 21  1  0
 14 22  1  0
 15 23  1  0
 15 24  1  0
 15 25  1  0
M  CHG  3   8  -1   9   1  11  -1
M  END
$$$$
=
     RDKit          3D

 40 43  0  0  0  0  0  0  0  0999 V2000
   15.6390   15.5000    4.3890 C   0  0  0  0  0  0  0  0  0  0  0  0
   14.2540   14.8860    4.2050 C   0  0  0  0  0  0  0  0  0  0  0  0
   13.0200   15.4340    4.5220 C   0  0  0  0  0  0  0  0  0  0  0  0
   11.8760   14.6820    4.2500 C   0  0  0  0  0  0  0  0  0  0  0  0
   11.9750   13.4100    3.6640 C   0  0  0  0  0  0  0  0  0  0  0  0
   13.2210   12.8670    3.3360 C   0  0  0  0  0  0  0  0  0  0  0  0
   14.3580   13.6110    3.6070 C   0  0  0  0  0  0  0  0  0  0  0  0
   15.7550   13.3120    3.3750 C   0  0  0  0  0  0  0  0  0  0  0  0
   16.5360   14.3990    3.8250 C   0  0  0  0  0  0  0  0  0  0  0  0
   17.9180   14.3850    3.7190 C   0  0  0  0  0  0  0  0  0  0  0  0
   18.5250   13.2580    3.1620 C   0  0  0  0  0  0  0  0  0  0  0  0
   17.7530   12.1730    2.7170 C   0  0  0  0  0  0  0  0  0  0  0  0
   16.3590   12.1950    2.8210 C   0  0  0  0  0  0  0  0  0  0  0  0
   15.9520   15.8320    5.8510 C   0  0  0  0  0  0  0  0  0  0  0  0
   17.3690   16.0220    5.9910 O   0  0  0  0  0  0  0  0  0  0  0  0
   20.9930   17.5920    4.9280 C   0  0  0  0  0  0  0  0  0  0  0  0
   20.0570   16.4320    5.2930 C   0  0  0  0  0  0  0  0  0  0  0  0
   19.0020   17.4390    5.3770 N   0  0  0  0  0  0  0  0  0  0  0  0
   19.9580   18.5280    5.5710 C   0  0  0  0  0  0  0  0  0  0  0  0
   17.7730   17.3220    5.9560 C   0  0  0  0  0  0  0  0  0  0  0  0
   17.1020   18.2590    6.3730 O   0  0  0  0  0  0  0  0  0  0  0  0
   23.2250   18.3480    5.1310 O   0  0  0  0  0  1  0  0  0  0  0  0
   22.3360   17.5640    5.5890 C   0  0  0  0  0  0  0  0  0  0  0  0
   22.4820   16.7710    6.5700 O   0  0  0  0  0  0  0  0  0  0  0  0
   15.7636   16.4724    3.8901 H   0  0  0  0  0  0  0  0  0  0  0  0
   12.9449   16.4335    4.9752 H   0  0  0  0  0  0  0  0  0  0  0  0
   10.8852   15.0907    4.4977 H   0  0  0  0  0  0  0  0  0  0  0  0
   11.0607   12.8333    3.4603 H   0  0  0  0  0  0  0  0  0  0  0  0
   13.2969   11.8719    2.8734 H   0  0  0  0  0  0  0  0  0  0  0  0
   18.5199   15.2385    4.0643 H   0  0  0  0  0  0  0  0  0  0  0  0
   19.6205   13.2196    3.0707 H   0  0  0  0  0  0  0  0  0  0  0  0
   18.2513   11.2946    2.2810 H   0  0  0  0  0  0  0  0  0  0  0  0
   15.7554   11.3447    2.4709 H   0  0  0  0  0  0  0  0  0  0  0  0
   15.4253   16.7529    6.1416 H   0  0  0  0  0  0  0  0  0  0  0  0
   15.6201   15.0082    6.5000 H   0  0  0  0  0  0  0  0  0  0  0  0
   21.3546   17.7468    3.9007 H   0  0  0  0  0  0  0  0  0  0  0  0
   19.9191   15.6806    4.5015 H   0  0  0  0  0  0  0  0  0  0  0  0
   20.2743   15.7351    6.1158 H   0  0  0  0  0  0  0  0  0  0  0  0
   19.7416   19.4430    5.0001 H   0  0  0  0  0  0  0  0  0  0  0  0
   20.1197   19.0052    6.5488 H   0  0  0  0  0  0  0  0  0  0  0  0
  2  1  1  0
  3  2  2  0
  4  3  1  0
  5  4  2  0
  6  5  1  0
  7  6  2  0
  7  2  1  0
  8  7  1  0
  9  8  2  0
  9  1  1  0
 10  9  1  0
 11 10  2  0
 12 11  1  0
 13  8  1  0
 13 12  2  0
 14  1  1  0
 15 14  1  0
 17 16  1  0
 18 17  1  0
 19 18  1  0
 19 16  1  0
 20 15  1  0
 20 18  1  0
 21 20  2  0
 23 16  1  0
 23 22  1  0
 24 23  2  0
  1 25  1  0
  3 26  1  0
  4 27  1  0
  5 28  1  0
  6 29  1  0
 10 30  1  0
 11 31  1  0
 12 32  1  0
 13 33  1  0
 14 34  1  0
 14 35  1  0
 16 36  1  0
 17 37  1  0
 17 38  1  0
 19 39  1  0
 19 40  1  0
M  CHG  1  22  -1
M  END
$$$$
=
     RDKit          3D

 38 39  0  0  0  0  0  0  0  0999 V2000
   14.9090   14.3340    3.5800 C   0  0  0  0  0  0  0  0  0  0  0  0
   15.8130   13.3290    3.1900 C   0  0  0  0  0  0  0  0  0  0  0  0
   15.3370   12.1300    2.4130 C   0  0  0  0  0  0  0  0  0  0  0  0
   17.1680   13.4540    3.5670 C   0  0  0  0  0  0  0  0  0  0  0  0
   18.1810   12.3940    3.2020 C   0  0  0  0  0  0  0  0  0  0  0  0
   17.5980   14.6170    4.2400 C   0  0  0  0  0  0  0  0  0  0  0  0
   16.6940   15.6330    4.5900 C   0  0  0  0  0  0  0  0  0  0  0  0
   15.3340   15.5100    4.2260 C   0  0  0  0  0  0  0  0  0  0  0  0
   14.3480   16.6000    4.5560 C   0  0  0  0  0  0  0  0  0  0  0  0
   17.1870   16.8530    5.3240 C   0  0  0  0  0  0  0  0  0  0  0  0
   18.5540   16.6260    5.9440 C   0  0  0  0  0  0  0  0  0  0  0  0
   19.4950   15.9340    4.9620 C   0  0  1  0  0  0  0  0  0  0  0  0
   18.9370   14.6720    4.5320 O   0  0  0  0  0  0  0  0  0  0  0  0
   19.8270   16.7900    3.7320 C   0  0  0  0  0  0  0  0  0  0  0  0
   20.8930   15.6520    5.6360 C   0  0  0  0  0  0  0  0  0  0  0  0
   21.9080   16.1280    5.0420 O   0  0  0  0  0  0  0  0  0  0  0  0
   20.8650   15.0040    6.7260 O   0  0  0  0  0  1  0  0  0  0  0  0
   12.9040   13.5520    4.3720 C   0  0  0  0  0  0  0  0  0  0  0  0
   13.5720   14.1840    3.2780 O   0  0  0  0  0  0  0  0  0  0  0  0
   15.0237   11.3407    3.1122 H   0  0  0  0  0  0  0  0  0  0  0  0
   14.4851   12.4181    1.7796 H   0  0  0  0  0  0  0  0  0  0  0  0
   16.1546   11.7553    1.7796 H   0  0  0  0  0  0  0  0  0  0  0  0
   18.5999   11.9557    4.1198 H   0  0  0  0  0  0  0  0  0  0  0  0
   17.6910   11.6068    2.6102 H   0  0  0  0  0  0  0  0  0  0  0  0
   18.9896   12.8479    2.6102 H   0  0  0  0  0  0  0  0  0  0  0  0
   14.2604   16.6968    5.6482 H   0  0  0  0  0  0  0  0  0  0  0  0
   14.6979   17.5521    4.1304 H   0  0  0  0  0  0  0  0  0  0  0  0
   13.3657   16.3470    4.1304 H   0  0  0  0  0  0  0  0  0  0  0  0
   17.2525   17.6920    4.6157 H   0  0  0  0  0  0  0  0  0  0  0  0
   16.4770   17.0734    6.1348 H   0  0  0  0  0  0  0  0  0  0  0  0
   18.9843   17.5970    6.2302 H   0  0  0  0  0  0  0  0  0  0  0  0
   18.4343   15.9806    6.8267 H   0  0  0  0  0  0  0  0  0  0  0  0
   20.2068   17.7693    4.0585 H   0  0  0  0  0  0  0  0  0  0  0  0
   20.5934   16.2823    3.1280 H   0  0  0  0  0  0  0  0  0  0  0  0
   18.9187   16.9318    3.1280 H   0  0  0  0  0  0  0  0  0  0  0  0
   13.3093   13.9355    5.3200 H   0  0  0  0  0  0  0  0  0  0  0  0
   11.8270   13.7695    4.3190 H   0  0  0  0  0  0  0  0  0  0  0  0
   13.0615   12.4646    4.3190 H   0  0  0  0  0  0  0  0  0  0  0  0
  2  1  2  0
  3  2  1  0
  4  2  1  0
  5  4  1  0
  6  4  2  0
  7  6  1  0
  8  1  1  0
  8  7  2  0
  9  8  1  0
 10  7  1  0
 11 10  1  0
 12 11  1  0
 13 12  1  0
 13  6  1  0
 14 12  1  0
 12 15  1  1
 16 15  2  0
 17 15  1  0
 19 18  1  0
 19  1  1  0
  3 20  1  0
  3 21  1  0
  3 22  1  0
  5 23  1  0
  5 24  1  0
  5 25  1  0
  9 26  1  0
  9 27  1  0
  9 28  1  0
 10 29  1  0
 10 30  1  0
 11 31  1  0
 11 32  1  0
 14 33  1  0
 14 34  1  0
 14 35  1  0
 18 36  1  0
 18 37  1  0
 18 38  1  0
M  CHG  1  17  -1
M  END
$$$$
=
     RDKit          3D

 53 56  0  0  0  0  0  0  0  0999 V2000
   26.3680   25.5990   13.7410 C   0  0  0  0  0  0  0  0  0  0  0  0
   25.2780   26.3220   14.5560 C   0  0  0  0  0  0  0  0  0  0  0  0
   23.8790   25.9010   14.1030 C   0  0  0  0  0  0  0  0  0  0  0  0
   23.7240   26.1320   12.6630 N   0  0  0  0  0  0  0  0  0  0  0  0
   24.7280   25.4770   11.8100 C   0  0  0  0  0  0  0  0  0  0  0  0
   26.1310   25.8980   12.2430 C   0  0  0  0  0  0  0  0  0  0  0  0
   22.4300   25.9500   12.1750 C   0  0  0  0  0  0  0  0  0  0  0  0
   21.8940   27.0010   11.5200 N   0  0  0  0  0  0  0  0  0  0  0  0
   20.6480   26.8710   11.0270 C   0  0  0  0  0  0  0  0  0  0  0  0
   19.8560   25.7920   11.1060 N   0  0  0  0  0  0  0  0  0  0  0  0
   20.4310   24.7700   11.7430 C   0  0  0  0  0  0  0  0  0  0  0  0
   21.7040   24.7850   12.2920 C   0  0  0  0  0  0  0  0  0  0  0  0
   22.0040   23.4770   12.9460 C   0  0  0  0  0  0  0  0  0  0  0  0
   20.9600   22.5610   12.2930 C   0  0  0  0  0  0  0  0  0  0  0  0
   19.7540   23.4500   11.9800 C   0  0  0  0  0  0  0  0  0  0  0  0
   27.6930   26.0490   14.1870 N   0  0  0  0  0  0  0  0  0  0  0  0
   28.9250   25.6340   13.7490 C   0  0  0  0  0  0  0  0  0  0  0  0
   29.8580   26.2750   14.5240 C   0  0  0  0  0  0  0  0  0  0  0  0
   29.1120   27.0370   15.4550 C   0  0  0  0  0  0  0  0  0  0  0  0
   27.7970   26.8630   15.2720 N   0  0  0  0  0  0  0  0  0  0  0  0
   29.6440   27.9300   16.5610 C   0  0  0  0  0  0  0  0  0  0  0  0
   30.1020   27.0720   17.7590 C   0  0  0  0  0  0  0  0  0  0  0  0
   28.5370   28.8950   17.0310 C   0  0  0  0  0  0  0  0  0  0  0  0
   30.8510   28.7770   16.1000 C   0  0  0  0  0  0  0  0  0  0  0  0
   26.3620   23.3480   12.9090 O   0  0  0  0  0  1  0  0  0  0  0  0
   26.3070   24.0630   13.9570 C   0  0  0  0  0  0  0  0  0  0  0  0
   26.2410   23.6560   15.1540 O   0  0  0  0  0  0  0  0  0  0  0  0
   25.4009   26.0726   15.6203 H   0  0  0  0  0  0  0  0  0  0  0  0
   25.3847   27.4052   14.3970 H   0  0  0  0  0  0  0  0  0  0  0  0
   23.7336   24.8320   14.3176 H   0  0  0  0  0  0  0  0  0  0  0  0
   23.1306   26.4972   14.6456 H   0  0  0  0  0  0  0  0  0  0  0  0
   24.6296   24.3854   11.9030 H   0  0  0  0  0  0  0  0  0  0  0  0
   24.5662   25.7767   10.7641 H   0  0  0  0  0  0  0  0  0  0  0  0
   26.8715   25.3459   11.6456 H   0  0  0  0  0  0  0  0  0  0  0  0
   26.2337   26.9816   12.0840 H   0  0  0  0  0  0  0  0  0  0  0  0
   20.2348   27.7450   10.5023 H   0  0  0  0  0  0  0  0  0  0  0  0
   23.0278   23.1420   12.7233 H   0  0  0  0  0  0  0  0  0  0  0  0
   21.9530   23.5030   14.0445 H   0  0  0  0  0  0  0  0  0  0  0  0
   21.3619   22.1226   11.3676 H   0  0  0  0  0  0  0  0  0  0  0  0
   20.6845   21.7278   12.9563 H   0  0  0  0  0  0  0  0  0  0  0  0
   19.2174   23.1037   11.0844 H   0  0  0  0  0  0  0  0  0  0  0  0
   18.9849   23.4674   12.7662 H   0  0  0  0  0  0  0  0  0  0  0  0
   29.1261   24.9239   12.9333 H   0  0  0  0  0  0  0  0  0  0  0  0
   30.9529   26.2106   14.4399 H   0  0  0  0  0  0  0  0  0  0  0  0
   29.8317   27.5784   18.6973 H   0  0  0  0  0  0  0  0  0  0  0  0
   29.6081   26.0900   17.7168 H   0  0  0  0  0  0  0  0  0  0  0  0
   31.1927   26.9359   17.7168 H   0  0  0  0  0  0  0  0  0  0  0  0
   28.5121   28.9167   18.1305 H   0  0  0  0  0  0  0  0  0  0  0  0
   28.7448   29.9054   16.6489 H   0  0  0  0  0  0  0  0  0  0  0  0
   27.5644   28.5513   16.6489 H   0  0  0  0  0  0  0  0  0  0  0  0
   31.3908   29.1558   16.9804 H   0  0  0  0  0  0  0  0  0  0  0  0
   31.5267   28.1540   15.4957 H   0  0  0  0  0  0  0  0  0  0  0  0
   30.4949   29.6243   15.4957 H   0  0  0  0  0  0  0  0  0  0  0  0
  2  1  1  0
  3  2  1  0
  4  3  1  0
  5  4  1  0
  6  5  1  0
  6  1  1  0
  7  4  1  0
  8  7  2  0
  9  8  1  0
 10  9  2  0
 11 10  1  0
 12 11  2  0
 12  7  1  0
 13 12  1  0
 14 13  1  0
 15 14  1  0
 15 11  1  0
 16  1  1  0
 17 16  1  0
 18 17  2  0
 19 18  1  0
 20 19  2  0
 20 16  1  0
 21 19  1  0
 22 21  1  0
 23 21  1  0
 24 21  1  0
 26 25  1  0
 26  1  1  0
 27 26  2  0
  2 28  1  0
  2 29  1  0
  3 30  1  0
  3 31  1  0
  5 32  1  0
  5 33  1  0
  6 34  1  0
  6 35  1  0
  9 36  1  0
 13 37  1  0
 13 38  1  0
 14 39  1  0
 14 40  1  0
 15 41  1  0
 15 42  1  0
 17 43  1  0
 18 44  1  0
 22 45  1  0
 22 46  1  0
 22 47  1  0
 23 48  1  0
 23 49  1  0
 23 50  1  0
 24 51  1  0
 24 52  1  0
 24 53  1  0
M  CHG  1  25  -1
M  END
$$$$
=
     RDKit          3D

 16 16  0  0  0  0  0  0  0  0999 V2000
   19.5790   16.4670    4.0540 C   0  0  0  0  0  0  0  0  0  0  0  0
   20.6680   16.1250    4.7640 C   0  0  0  0  0  0  0  0  0  0  0  0
   18.2430   16.2260    4.5250 C   0  0  0  0  0  0  0  0  0  0  0  0
   17.5150   16.8750    5.5130 C   0  0  0  0  0  0  0  0  0  0  0  0
   16.2050   16.3460    5.6960 C   0  0  0  0  0  0  0  0  0  0  0  0
   15.9490   15.3060    4.8360 C   0  0  0  0  0  0  0  0  0  0  0  0
   17.2770   14.9760    3.8170 S   0  0  0  0  0  0  0  0  0  0  0  0
   20.6370   15.4100    6.0910 C   0  0  0  0  0  0  0  0  0  0  0  0
   19.9370   14.3640    6.1140 O   0  0  0  0  0  0  0  0  0  0  0  0
   21.3500   15.9440    6.9840 O   0  0  0  0  0  1  0  0  0  0  0  0
   19.9370   17.6490    1.7680 N   0  0  0  0  0  0  0  0  0  0  0  0
   19.7810   17.1200    2.7930 C   0  0  0  0  0  0  0  0  0  0  0  0
   21.6520   16.3854    4.3470 H   0  0  0  0  0  0  0  0  0  0  0  0
   17.9118   17.7173    6.0987 H   0  0  0  0  0  0  0  0  0  0  0  0
   15.4853   16.7247    6.4367 H   0  0  0  0  0  0  0  0  0  0  0  0
   14.9996   14.7512    4.8076 H   0  0  0  0  0  0  0  0  0  0  0  0
  2  1  2  0
  3  1  1  0
  4  3  2  0
  5  4  1  0
  6  5  2  0
  7  6  1  0
  7  3  1  0
  8  2  1  0
  9  8  2  0
 10  8  1  0
 12 11  3  0
 12  1  1  0
  2 13  1  0
  4 14  1  0
  5 15  1  0
  6 16  1  0
M  CHG  1  10  -1
M  END
$$$$
=
     RDKit          3D

 33 34  0  0  0  0  0  0  0  0999 V2000
    9.6590   13.0430    3.1180 C   0  0  0  0  0  0  0  0  0  0  0  0
   11.0900   13.4700    3.1500 N   0  0  0  0  0  4  0  0  0  0  0  0
   11.4510   14.1930    4.4460 C   0  0  0  0  0  0  0  0  0  0  0  0
   12.9000   14.7010    4.3920 C   0  0  0  0  0  0  0  0  0  0  0  0
   13.8200   13.6110    4.0450 N   0  0  0  0  0  0  0  0  0  0  0  0
   13.5010   12.8060    2.8610 C   0  0  0  0  0  0  0  0  0  0  0  0
   12.0490   12.3040    2.9200 C   0  0  0  0  0  0  0  0  0  0  0  0
   15.1600   14.0400    4.0400 C   0  0  0  0  0  0  0  0  0  0  0  0
   16.0420   13.3620    3.3010 N   0  0  0  0  0  0  0  0  0  0  0  0
   17.3130   13.8260    3.2900 C   0  0  0  0  0  0  0  0  0  0  0  0
   17.7500   14.9400    3.9760 C   0  0  0  0  0  0  0  0  0  0  0  0
   16.7740   15.5670    4.7290 C   0  0  0  0  0  0  0  0  0  0  0  0
   15.4850   15.1240    4.7580 N   0  0  0  0  0  0  0  0  0  0  0  0
   17.0410   16.7810    5.5700 C   0  0  0  0  0  0  0  0  0  0  0  0
   19.1780   15.3690    3.8530 C   0  0  0  0  0  0  0  0  0  0  0  0
   19.9540   15.0120    4.7930 O   0  0  0  0  0  0  0  0  0  0  0  0
   19.5150   16.0360    2.8300 O   0  0  0  0  0  1  0  0  0  0  0  0
    9.2864   12.9318    4.1470 H   0  0  0  0  0  0  0  0  0  0  0  0
    9.0616   13.8020    2.5917 H   0  0  0  0  0  0  0  0  0  0  0  0
    9.5752   12.0807    2.5917 H   0  0  0  0  0  0  0  0  0  0  0  0
   11.1980   14.1340    2.3701 H   0  0  0  0  0  0  0  0  0  0  0  0
   10.7725   15.0476    4.5850 H   0  0  0  0  0  0  0  0  0  0  0  0
   11.3512   13.4897    5.2859 H   0  0  0  0  0  0  0  0  0  0  0  0
   12.9766   15.4935    3.6330 H   0  0  0  0  0  0  0  0  0  0  0  0
   13.1742   15.0930    5.3825 H   0  0  0  0  0  0  0  0  0  0  0  0
   13.6338   13.4218    1.9592 H   0  0  0  0  0  0  0  0  0  0  0  0
   14.1747   11.9369    2.8324 H   0  0  0  0  0  0  0  0  0  0  0  0
   11.7976   11.8103    1.9697 H   0  0  0  0  0  0  0  0  0  0  0  0
   11.9516   11.5929    3.7536 H   0  0  0  0  0  0  0  0  0  0  0  0
   18.0518   13.2744    2.6901 H   0  0  0  0  0  0  0  0  0  0  0  0
   16.9814   16.5100    6.6344 H   0  0  0  0  0  0  0  0  0  0  0  0
   18.0458   17.1685    5.3460 H   0  0  0  0  0  0  0  0  0  0  0  0
   16.2915   17.5543    5.3460 H   0  0  0  0  0  0  0  0  0  0  0  0
  2  1  1  0
  3  2  1  0
  4  3  1  0
  5  4  1  0
  6  5  1  0
  7  6  1  0
  7  2  1  0
  8  5  1  0
  9  8  2  0
 10  9  1  0
 11 10  2  0
 12 11  1  0
 13  8  1  0
 13 12  2  0
 14 12  1  0
 15 11  1  0
 16 15  2  0
 17 15  1  0
  1 18  1  0
  1 19  1  0
  1 20  1  0
  2 21  1  0
  3 22  1  0
  3 23  1  0
  4 24  1  0
  4 25  1  0
  6 26  1  0
  6 27  1  0
  7 28  1  0
  7 29  1  0
 10 30  1  0
 14 31  1  0
 14 32  1  0
 14 33  1  0
M  CHG  2   2   1  17  -1
M  END
$$$$
=
     RDKit          3D

 45 46  0  0  0  0  0  0  0  0999 V2000
   16.0290   14.6090    3.9710 C   0  0  0  0  0  0  0  0  0  0  0  0
   17.3250   14.2450    3.5930 C   0  0  0  0  0  0  0  0  0  0  0  0
   17.5390   13.0450    2.9180 C   0  0  0  0  0  0  0  0  0  0  0  0
   16.4580   12.2240    2.6050 C   0  0  0  0  0  0  0  0  0  0  0  0
   15.1600   12.6010    2.9650 C   0  0  0  0  0  0  0  0  0  0  0  0
   14.9260   13.7980    3.6580 C   0  0  0  0  0  0  0  0  0  0  0  0
   13.5580   14.2200    3.9970 C   0  0  0  0  0  0  0  0  0  0  0  0
   12.4580   13.5500    3.6220 C   0  0  0  0  0  0  0  0  0  0  0  0
   11.1140   14.0260    4.0380 C   0  0  0  0  0  0  0  0  0  0  0  0
   10.9570   15.0180    4.7390 O   0  0  0  0  0  0  0  0  0  0  0  0
   10.1180   13.2360    3.5500 N   0  0  0  0  0  0  0  0  0  0  0  0
    8.6750   13.5190    3.6520 C   0  0  2  0  0  0  0  0  0  0  0  0
    7.8810   12.2400    3.8700 C   0  0  0  0  0  0  0  0  0  0  0  0
    8.1500   14.2210    2.3530 C   0  0  0  0  0  0  0  0  0  0  0  0
    8.0370   15.4770    2.3960 O   0  0  0  0  0  0  0  0  0  0  0  0
    7.9100   13.4140    1.3980 O   0  0  0  0  0  1  0  0  0  0  0  0
   15.8840   15.8150    4.6110 O   0  0  0  0  0  0  0  0  0  0  0  0
   16.3930   15.7600    5.9520 C   0  0  0  0  0  0  0  0  0  0  0  0
   22.0840   17.0180    5.9300 C   0  0  0  0  0  0  0  0  0  0  0  0
   20.6220   16.6830    5.9110 C   0  0  0  0  0  0  0  0  0  0  0  0
   19.6890   17.6080    5.4310 C   0  0  0  0  0  0  0  0  0  0  0  0
   18.3240   17.3080    5.4430 C   0  0  0  0  0  0  0  0  0  0  0  0
   17.8690   16.0840    5.9490 C   0  0  0  0  0  0  0  0  0  0  0  0
   18.8040   15.1620    6.4360 C   0  0  0  0  0  0  0  0  0  0  0  0
   20.1680   15.4630    6.4230 C   0  0  0  0  0  0  0  0  0  0  0  0
   18.1736   14.9044    3.8279 H   0  0  0  0  0  0  0  0  0  0  0  0
   18.5587   12.7468    2.6331 H   0  0  0  0  0  0  0  0  0  0  0  0
   16.6257   11.2760    2.0729 H   0  0  0  0  0  0  0  0  0  0  0  0
   14.3126   11.9510    2.7015 H   0  0  0  0  0  0  0  0  0  0  0  0
   13.4299   15.1366    4.5915 H   0  0  0  0  0  0  0  0  0  0  0  0
   12.5517   12.6448    3.0041 H   0  0  0  0  0  0  0  0  0  0  0  0
   10.3961   12.3684    3.0696 H   0  0  0  0  0  0  0  0  0  0  0  0
    8.5356   14.1873    4.5145 H   0  0  0  0  0  0  0  0  0  0  0  0
    7.7680   12.0580    4.9489 H   0  0  0  0  0  0  0  0  0  0  0  0
    6.8873   12.3423    3.4094 H   0  0  0  0  0  0  0  0  0  0  0  0
    8.4135   11.3948    3.4094 H   0  0  0  0  0  0  0  0  0  0  0  0
   15.8591   16.4916    6.5763 H   0  0  0  0  0  0  0  0  0  0  0  0
   16.2423   14.7489    6.3582 H   0  0  0  0  0  0  0  0  0  0  0  0
   22.4286   17.0970    6.9717 H   0  0  0  0  0  0  0  0  0  0  0  0
   22.6484   16.2259    5.4161 H   0  0  0  0  0  0  0  0  0  0  0  0
   22.2472   17.9768    5.4161 H   0  0  0  0  0  0  0  0  0  0  0  0
   20.0318   18.5779    5.0415 H   0  0  0  0  0  0  0  0  0  0  0  0
   17.6012   18.0392    5.0518 H   0  0  0  0  0  0  0  0  0  0  0  0
   18.4619   14.1942    6.8314 H   0  0  0  0  0  0  0  0  0  0  0  0
   20.8911   14.7346    6.8187 H   0  0  0  0  0  0  0  0  0  0  0  0
  2  1  2  0
  3  2  1  0
  4  3  2  0
  5  4  1  0
  6  5  2  0
  6  1  1  0
  7  6  1  0
  8  7  2  0
  9  8  1  0
 10  9  2  0
 11  9  1  0
 12 11  1  0
 13 12  1  0
 14 12  1  0
 15 14  2  0
 16 14  1  0
 17  1  1  0
 18 17  1  0
 20 19  1  0
 21 20  2  0
 22 21  1  0
 23 18  1  0
 23 22  2  0
 24 23  1  0
 25 24  2  0
 25 20  1  0
  2 26  1  0
  3 27  1  0
  4 28  1  0
  5 29  1  0
  7 30  1  0
  8 31  1  0
 11 32  1  0
 12 33  1  1
 13 34  1  0
 13 35  1  0
 13 36  1  0
 18 37  1  0
 18 38  1  0
 19 39  1  0
 19 40  1  0
 19 41  1  0
 21 42  1  0
 22 43  1  0
 24 44  1  0
 25 45  1  0
M  CHG  1  16  -1
M  END
$$$$
=
     RDKit          3D

 27 27  0  0  0  0  0  0  0  0999 V2000
   18.0130   15.8190    3.9750 C   0  0  1  0  0  0  0  0  0  0  0  0
   17.4810   14.5160    3.5520 N   0  0  0  0  0  0  0  0  0  0  0  0
   18.2370   13.3720    3.4080 C   0  0  0  0  0  0  0  0  0  0  0  0
   17.4150   12.3610    2.9660 C   0  0  0  0  0  0  0  0  0  0  0  0
   16.1140   12.9000    2.8440 C   0  0  0  0  0  0  0  0  0  0  0  0
   16.1820   14.2240    3.2150 C   0  0  0  0  0  0  0  0  0  0  0  0
   17.7320   16.1740    5.4760 C   0  0  0  0  0  0  0  0  0  0  0  0
   16.2130   16.1150    5.7580 C   0  0  0  0  0  0  0  0  0  0  0  0
   18.4310   15.2490    6.4900 C   0  0  0  0  0  0  0  0  0  0  0  0
   18.1890   17.6250    5.7470 C   0  0  0  0  0  0  0  0  0  0  0  0
   20.3910   15.5990    4.2160 O   0  0  0  0  0  1  0  0  0  0  0  0
   19.4590   15.9630    3.4430 C   0  0  0  0  0  0  0  0  0  0  0  0
   19.5560   16.4860    2.2920 O   0  0  0  0  0  0  0  0  0  0  0  0
   17.4462   16.6365    3.5054 H   0  0  0  0  0  0  0  0  0  0  0  0
   19.3143   13.2827    3.6118 H   0  0  0  0  0  0  0  0  0  0  0  0
   17.7147   11.3253    2.7480 H   0  0  0  0  0  0  0  0  0  0  0  0
   15.2137   12.3612    2.5137 H   0  0  0  0  0  0  0  0  0  0  0  0
   15.3381   14.9292    3.2377 H   0  0  0  0  0  0  0  0  0  0  0  0
   16.0418   16.1083    6.8446 H   0  0  0  0  0  0  0  0  0  0  0  0
   15.7234   16.9948    5.3150 H   0  0  0  0  0  0  0  0  0  0  0  0
   15.7931   15.1999    5.3150 H   0  0  0  0  0  0  0  0  0  0  0  0
   18.1858   15.5735    7.5120 H   0  0  0  0  0  0  0  0  0  0  0  0
   18.0867   14.2150    6.3411 H   0  0  0  0  0  0  0  0  0  0  0  0
   19.5198   15.2979    6.3411 H   0  0  0  0  0  0  0  0  0  0  0  0
   18.2428   17.7958    6.8323 H   0  0  0  0  0  0  0  0  0  0  0  0
   19.1814   17.7862    5.3008 H   0  0  0  0  0  0  0  0  0  0  0  0
   17.4681   18.3259    5.3008 H   0  0  0  0  0  0  0  0  0  0  0  0
  2  1  1  0
  3  2  1  0
  4  3  2  0
  5  4  1  0
  6  5  2  0
  6  2  1  0
  7  1  1  0
  8  7  1  0
  9  7  1  0
 10  7  1  0
 12 11  1  0
 12  1  1  0
 13 12  2  0
  1 14  1  6
  3 15  1  0
  4 16  1  0
  5 17  1  0
  6 18  1  0
  8 19  1  0
  8 20  1  0
  8 21  1  0
  9 22  1  0
  9 23  1  0
  9 24  1  0
 10 25  1  0
 10 26  1  0
 10 27  1  0
M  CHG  1  11  -1
M  END
$$$$
=
     RDKit          3D

 42 42  0  0  0  0  0  0  0  0999 V2000
   17.8800   15.8720    4.4360 C   0  0  2  0  0  0  0  0  0  0  0  0
   19.3230   16.1450    4.2720 N   0  0  0  0  0  0  0  0  0  0  0  0
   19.8450   17.2140    3.6250 C   0  0  0  0  0  0  0  0  0  0  0  0
   19.2170   18.0070    2.9420 O   0  0  0  0  0  0  0  0  0  0  0  0
   21.1790   17.2520    3.8530 O   0  0  0  0  0  0  0  0  0  0  0  0
   21.7020   17.7210    5.1190 C   0  0  0  0  0  0  0  0  0  0  0  0
   23.0160   18.4310    4.7600 C   0  0  0  0  0  0  0  0  0  0  0  0
   22.0200   16.5530    6.0600 C   0  0  0  0  0  0  0  0  0  0  0  0
   20.7600   18.7400    5.7690 C   0  0  0  0  0  0  0  0  0  0  0  0
   17.4150   16.3170    5.8630 C   0  0  0  0  0  0  0  0  0  0  0  0
   17.6270   15.4500    6.7690 O   0  0  0  0  0  0  0  0  0  0  0  0
   16.9360   17.4810    5.9590 O   0  0  0  0  0  1  0  0  0  0  0  0
   18.4740   13.6310    3.3130 C   0  0  0  0  0  0  0  0  0  0  0  0
   17.5710   14.3560    4.3270 C   0  0  2  0  0  0  0  0  0  0  0  0
   16.1090   14.0760    3.9810 C   0  0  0  0  0  0  0  0  0  0  0  0
   15.7870   12.9700    3.1760 C   0  0  0  0  0  0  0  0  0  0  0  0
   14.4590   12.6790    2.8610 C   0  0  0  0  0  0  0  0  0  0  0  0
   13.4390   13.4970    3.3600 C   0  0  0  0  0  0  0  0  0  0  0  0
   13.7390   14.5990    4.1680 C   0  0  0  0  0  0  0  0  0  0  0  0
   15.0710   14.8820    4.4770 C   0  0  0  0  0  0  0  0  0  0  0  0
   12.0410   13.1990    3.0290 N   0  0  0  0  0  4  0  0  0  0  0  0
   11.1640   13.9570    3.4690 O   0  0  0  0  0  0  0  0  0  0  0  0
   11.8080   12.1910    2.3440 O   0  0  0  0  0  1  0  0  0  0  0  0
   17.3576   16.4251    3.6415 H   0  0  0  0  0  0  0  0  0  0  0  0
   19.9835   15.4693    4.6819 H   0  0  0  0  0  0  0  0  0  0  0  0
   23.5429   18.7157    5.6827 H   0  0  0  0  0  0  0  0  0  0  0  0
   23.6500   17.7527    4.1701 H   0  0  0  0  0  0  0  0  0  0  0  0
   22.7961   19.3330    4.1701 H   0  0  0  0  0  0  0  0  0  0  0  0
   21.9288   16.8878    7.1038 H   0  0  0  0  0  0  0  0  0  0  0  0
   21.3131   15.7307    5.8756 H   0  0  0  0  0  0  0  0  0  0  0  0
   23.0463   16.2025    5.8756 H   0  0  0  0  0  0  0  0  0  0  0  0
   20.8332   18.6608    6.8637 H   0  0  0  0  0  0  0  0  0  0  0  0
   21.0448   19.7550    5.4549 H   0  0  0  0  0  0  0  0  0  0  0  0
   19.7258   18.5357    5.4549 H   0  0  0  0  0  0  0  0  0  0  0  0
   19.2218   13.0306    3.8517 H   0  0  0  0  0  0  0  0  0  0  0  0
   17.8604   12.9718    2.6813 H   0  0  0  0  0  0  0  0  0  0  0  0
   18.9850   14.3725    2.6813 H   0  0  0  0  0  0  0  0  0  0  0  0
   17.7813   13.9579    5.3306 H   0  0  0  0  0  0  0  0  0  0  0  0
   16.5910   12.3263    2.7897 H   0  0  0  0  0  0  0  0  0  0  0  0
   14.2161   11.8142    2.2260 H   0  0  0  0  0  0  0  0  0  0  0  0
   12.9320   15.2374    4.5568 H   0  0  0  0  0  0  0  0  0  0  0  0
   15.3100   15.7452    5.1156 H   0  0  0  0  0  0  0  0  0  0  0  0
  2  1  1  0
  3  2  1  0
  4  3  2  0
  5  3  1  0
  6  5  1  0
  7  6  1  0
  8  6  1  0
  9  6  1  0
 10  1  1  0
 11 10  2  0
 12 10  1  0
 14 13  1  0
 14  1  1  0
 15 14  1  0
 16 15  2  0
 17 16  1  0
 18 17  2  0
 19 18  1  0
 20 19  2  0
 20 15  1  0
 21 18  1  0
 22 21  2  0
 23 21  1  0
  1 24  1  6
  2 25  1  0
  7 26  1  0
  7 27  1  0
  7 28  1  0
  8 29  1  0
  8 30  1  0
  8 31  1  0
  9 32  1  0
  9 33  1  0
  9 34  1  0
 13 35  1  0
 13 36  1  0
 13 37  1  0
 14 38  1  1
 16 39  1  0
 17 40  1  0
 19 41  1  0
 20 42  1  0
M  CHG  3  12  -1  21   1  23  -1
M  END
$$$$
=
     RDKit          3D

 49 51  0  0  0  0  0  0  0  0999 V2000
   14.7250   15.0880    4.3610 C   0  0  0  0  0  0  0  0  0  0  0  0
   14.0180   16.4550    4.2550 C   0  0  0  0  0  0  0  0  0  0  0  0
   15.4220   15.0150    5.7320 C   0  0  0  0  0  0  0  0  0  0  0  0
   13.6580   13.9780    4.2360 C   0  0  0  0  0  0  0  0  0  0  0  0
   13.9690   12.7870    4.2860 O   0  0  0  0  0  0  0  0  0  0  0  0
   12.3460   14.4330    4.2630 N   0  0  0  0  0  0  0  0  0  0  0  0
   11.2240   13.7100    3.9030 C   0  0  0  0  0  0  0  0  0  0  0  0
   10.1430   13.5250    4.6900 C   0  0  0  0  0  0  0  0  0  0  0  0
    8.9160   12.7750    4.2200 C   0  0  0  0  0  0  0  0  0  0  0  0
    8.9150   12.4450    2.7290 C   0  0  0  0  0  0  0  0  0  0  0  0
   10.2860   11.9620    2.2880 C   0  0  0  0  0  0  0  0  0  0  0  0
   11.3380   13.0390    2.5500 C   0  0  0  0  0  0  0  0  0  0  0  0
   10.0740   13.8980    6.2050 C   0  0  0  0  0  0  0  0  0  0  0  0
    8.9930   14.4420    6.5750 O   0  0  0  0  0  0  0  0  0  0  0  0
   11.0540   13.5020    6.9040 O   0  0  0  0  0  1  0  0  0  0  0  0
   15.7090   14.8920    3.1870 C   0  0  0  0  0  0  0  0  0  0  0  0
   19.1030   15.5500    4.1020 C   0  0  0  0  0  0  0  0  0  0  0  0
   19.1770   14.2190    3.8980 N   0  0  0  0  0  0  0  0  0  0  0  0
   17.8800   13.8660    3.5310 O   0  0  0  0  0  0  0  0  0  0  0  0
   17.1410   15.0110    3.5570 C   0  0  0  0  0  0  0  0  0  0  0  0
   17.8420   16.0710    3.8800 N   0  0  0  0  0  0  0  0  0  0  0  0
   22.3790   17.9470    5.2430 C   0  0  0  0  0  0  0  0  0  0  0  0
   22.0820   16.8320    6.0110 C   0  0  0  0  0  0  0  0  0  0  0  0
   21.0000   16.0300    5.6430 C   0  0  0  0  0  0  0  0  0  0  0  0
   20.2480   16.3690    4.5150 C   0  0  0  0  0  0  0  0  0  0  0  0
   20.5390   17.4600    3.7580 N   0  0  0  0  0  0  0  0  0  0  0  0
   21.5920   18.2200    4.1370 C   0  0  0  0  0  0  0  0  0  0  0  0
   23.4180   18.7720    5.5470 O   0  0  0  0  0  0  0  0  0  0  0  0
   13.8172   16.8432    5.2644 H   0  0  0  0  0  0  0  0  0  0  0  0
   14.6641   17.1609    3.7125 H   0  0  0  0  0  0  0  0  0  0  0  0
   13.0686   16.3357    3.7125 H   0  0  0  0  0  0  0  0  0  0  0  0
   14.6696   15.0938    6.5305 H   0  0  0  0  0  0  0  0  0  0  0  0
   15.9536   14.0563    5.8225 H   0  0  0  0  0  0  0  0  0  0  0  0
   16.1407   15.8428    5.8225 H   0  0  0  0  0  0  0  0  0  0  0  0
   12.1946   15.4008    4.5814 H   0  0  0  0  0  0  0  0  0  0  0  0
    8.8525   11.8315    4.7819 H   0  0  0  0  0  0  0  0  0  0  0  0
    8.0550   13.4363    4.3972 H   0  0  0  0  0  0  0  0  0  0  0  0
    8.1736   11.6562    2.5337 H   0  0  0  0  0  0  0  0  0  0  0  0
    8.6605   13.3542    2.1645 H   0  0  0  0  0  0  0  0  0  0  0  0
   10.5488   11.0538    2.8502 H   0  0  0  0  0  0  0  0  0  0  0  0
   10.2586   11.7437    1.2102 H   0  0  0  0  0  0  0  0  0  0  0  0
   12.3320   12.5731    2.4799 H   0  0  0  0  0  0  0  0  0  0  0  0
   11.1777   13.8239    1.7962 H   0  0  0  0  0  0  0  0  0  0  0  0
   15.5454   13.8892    2.7655 H   0  0  0  0  0  0  0  0  0  0  0  0
   15.5036   15.6996    2.4689 H   0  0  0  0  0  0  0  0  0  0  0  0
   22.6880   16.5834    6.8947 H   0  0  0  0  0  0  0  0  0  0  0  0
   20.7419   15.1398    6.2353 H   0  0  0  0  0  0  0  0  0  0  0  0
   21.8370   19.1054    3.5320 H   0  0  0  0  0  0  0  0  0  0  0  0
   23.6058   19.5612    4.9796 H   0  0  0  0  0  0  0  0  0  0  0  0
  2  1  1  0
  3  1  1  0
  4  1  1  0
  5  4  2  0
  6  4  1  0
  7  6  1  0
  8  7  2  0
  9  8  1  0
 10  9  1  0
 11 10  1  0
 12 11  1  0
 12  7  1  0
 13  8  1  0
 14 13  2  0
 15 13  1  0
 16  1  1  0
 18 17  2  0
 19 18  1  0
 20 16  1  0
 20 19  1  0
 21 20  2  0
 21 17  1  0
 23 22  2  0
 24 23  1  0
 25 17  1  0
 25 24  2  0
 26 25  1  0
 27 26  2  0
 27 22  1  0
 28 22  1  0
  2 29  1  0
  2 30  1  0
  2 31  1  0
  3 32  1  0
  3 33  1  0
  3 34  1  0
  6 35  1  0
  9 36  1  0
  9 37  1  0
 10 38  1  0
 10 39  1  0
 11 40  1  0
 11 41  1  0
 12 42  1  0
 12 43  1  0
 16 44  1  0
 16 45  1  0
 23 46  1  0
 24 47  1  0
 27 48  1  0
 28 49  1  0
M  CHG  1  15  -1
M  END
$$$$
=
     RDKit          3D

 24 26  0  0  0  0  0  0  0  0999 V2000
   18.6560   15.5460    4.6570 C   0  0  1  0  0  0  0  0  0  0  0  0
   17.5100   16.5310    5.0240 C   0  0  0  0  0  0  0  0  0  0  0  0
   16.2600   15.7950    4.6270 C   0  0  0  0  0  0  0  0  0  0  0  0
   16.5620   14.6110    4.0070 C   0  0  0  0  0  0  0  0  0  0  0  0
   17.9190   14.4240    3.9590 C   0  0  0  0  0  0  0  0  0  0  0  0
   18.4120   13.2710    3.3660 C   0  0  0  0  0  0  0  0  0  0  0  0
   17.5100   12.3400    2.8270 C   0  0  0  0  0  0  0  0  0  0  0  0
   16.1180   12.5560    2.8890 C   0  0  0  0  0  0  0  0  0  0  0  0
   15.6130   13.7210    3.4970 C   0  0  0  0  0  0  0  0  0  0  0  0
   14.2640   14.0940    3.6500 C   0  0  0  0  0  0  0  0  0  0  0  0
   13.9340   15.3070    4.2850 C   0  0  0  0  0  0  0  0  0  0  0  0
   14.9330   16.1650    4.7750 C   0  0  0  0  0  0  0  0  0  0  0  0
   20.8740   16.3520    4.4800 O   0  0  0  0  0  1  0  0  0  0  0  0
   19.8080   16.1270    3.8290 C   0  0  0  0  0  0  0  0  0  0  0  0
   19.5730   16.3710    2.6120 O   0  0  0  0  0  0  0  0  0  0  0  0
   19.2094   15.2289    5.5532 H   0  0  0  0  0  0  0  0  0  0  0  0
   17.5107   16.7480    6.1024 H   0  0  0  0  0  0  0  0  0  0  0  0
   17.6083   17.5034    4.5193 H   0  0  0  0  0  0  0  0  0  0  0  0
   19.4957   13.0885    3.3187 H   0  0  0  0  0  0  0  0  0  0  0  0
   17.8953   11.4275    2.3487 H   0  0  0  0  0  0  0  0  0  0  0  0
   15.4267   11.8143    2.4623 H   0  0  0  0  0  0  0  0  0  0  0  0
   13.4665   13.4369    3.2729 H   0  0  0  0  0  0  0  0  0  0  0  0
   12.8765   15.5874    4.3993 H   0  0  0  0  0  0  0  0  0  0  0  0
   14.6667   17.1123    5.2667 H   0  0  0  0  0  0  0  0  0  0  0  0
  2  1  1  0
  3  2  1  0
  4  3  2  0
  5  4  1  0
  5  1  1  0
  6  5  2  0
  7  6  1  0
  8  7  2  0
  9  8  1  0
  9  4  1  0
 10  9  2  0
 11 10  1  0
 12 11  2  0
 12  3  1  0
 14  1  1  0
 14 13  1  0
 15 14  2  0
  1 16  1  1
  2 17  1  0
  2 18  1  0
  6 19  1  0
  7 20  1  0
  8 21  1  0
 10 22  1  0
 11 23  1  0
 12 24  1  0
M  CHG  1  13  -1
M  END
$$$$
=
     RDKit          3D

 19 19  0  0  0  0  0  0  0  0999 V2000
   20.3720   16.0140    4.7360 C   0  0  2  0  0  0  0  0  0  0  0  0
   18.8580   15.9390    4.8350 C   0  0  0  0  0  0  0  0  0  0  0  0
   18.1580   16.8000    5.6930 C   0  0  0  0  0  0  0  0  0  0  0  0
   16.7670   16.7340    5.7870 C   0  0  0  0  0  0  0  0  0  0  0  0
   16.0570   15.8110    5.0210 C   0  0  0  0  0  0  0  0  0  0  0  0
   16.7380   14.9580    4.1550 C   0  0  0  0  0  0  0  0  0  0  0  0
   18.1300   15.0230    4.0610 C   0  0  0  0  0  0  0  0  0  0  0  0
   20.7270   14.6890    6.6970 O   0  0  0  0  0  1  0  0  0  0  0  0
   21.0080   15.8000    6.1530 C   0  0  0  0  0  0  0  0  0  0  0  0
   21.7750   16.7170    6.5700 O   0  0  0  0  0  0  0  0  0  0  0  0
   20.8080   17.2930    4.0980 N   0  0  0  0  0  0  0  0  0  0  0  0
   20.3850   17.4790    2.9430 N   0  0  0  0  0  4  0  0  0  0  0  0
   19.9800   17.7220    1.9040 N   0  0  0  0  0  2  0  0  0  0  0  0
   20.7328   15.2061    4.0825 H   0  0  0  0  0  0  0  0  0  0  0  0
   18.7106   17.5343    6.2976 H   0  0  0  0  0  0  0  0  0  0  0  0
   16.2300   17.4117    6.4669 H   0  0  0  0  0  0  0  0  0  0  0  0
   14.9612   15.7561    5.1000 H   0  0  0  0  0  0  0  0  0  0  0  0
   16.1791   14.2330    3.5451 H   0  0  0  0  0  0  0  0  0  0  0  0
   18.6611   14.3489    3.3729 H   0  0  0  0  0  0  0  0  0  0  0  0
  2  1  1  0
  3  2  2  0
  4  3  1  0
  5  4  2  0
  6  5  1  0
  7  6  2  0
  7  2  1  0
  9  1  1  0
  9  8  1  0
 10  9  2  0
 11  1  1  0
 12 11  2  0
 13 12  2  0
  1 14  1  6
  3 15  1  0
  4 16  1  0
  5 17  1  0
  6 18  1  0
  7 19  1  0
M  CHG  3   8  -1  12   1  13  -1
M  END
$$$$
=
     RDKit          3D

 72 77  0  0  0  0  0  0  0  0999 V2000
   20.1380   23.3180   17.8210 C   0  0  0  0  0  0  0  0  0  0  0  0
   20.3630   22.2310   16.9760 C   0  0  0  0  0  0  0  0  0  0  0  0
   21.1720   22.3550   15.8350 C   0  0  0  0  0  0  0  0  0  0  0  0
   21.2870   21.2090   14.8580 C   0  0  0  0  0  0  0  0  0  0  0  0
   20.5750   21.5240   13.5360 C   0  0  0  0  0  0  0  0  0  0  0  0
   20.9730   22.7300   12.6930 C   0  0  0  0  0  0  0  0  0  0  0  0
   21.9410   23.7110   13.0270 C   0  0  0  0  0  0  0  0  0  0  0  0
   22.7330   23.6430   14.3300 C   0  0  2  0  0  0  0  0  0  0  0  0
   21.8060   23.5820   15.5440 C   0  0  0  0  0  0  0  0  0  0  0  0
   21.4800   24.6880   16.3460 C   0  0  0  0  0  0  0  0  0  0  0  0
   20.6900   24.5530   17.4960 C   0  0  0  0  0  0  0  0  0  0  0  0
   22.1850   24.7440   12.0980 C   0  0  0  0  0  0  0  0  0  0  0  0
   21.4760   24.8320   10.8970 C   0  0  0  0  0  0  0  0  0  0  0  0
   20.4980   23.8980   10.5830 C   0  0  0  0  0  0  0  0  0  0  0  0
   20.2640   22.8520   11.4710 C   0  0  0  0  0  0  0  0  0  0  0  0
   23.7330   24.6860   14.4700 N   0  0  0  0  0  0  0  0  0  0  0  0
   25.0100   24.4180   14.8460 C   0  0  0  0  0  0  0  0  0  0  0  0
   25.5430   23.3200   14.8760 O   0  0  0  0  0  0  0  0  0  0  0  0
   25.6130   25.5820   15.1950 O   0  0  0  0  0  0  0  0  0  0  0  0
   25.4110   26.6770   14.2810 C   0  0  0  0  0  0  0  0  0  0  0  0
   26.6040   26.8500   13.3320 C   0  0  0  0  0  0  0  0  0  0  0  0
   26.8170   25.6240   12.4480 C   0  0  0  0  0  0  0  0  0  0  0  0
   25.9480   25.0810   11.5150 C   0  0  0  0  0  0  0  0  0  0  0  0
   26.3630   23.9490   10.8110 C   0  0  0  0  0  0  0  0  0  0  0  0
   27.6280   23.3850   11.0410 C   0  0  0  0  0  0  0  0  0  0  0  0
   28.5050   23.9460   11.9760 C   0  0  0  0  0  0  0  0  0  0  0  0
   28.0940   25.0690   12.6750 C   0  0  0  0  0  0  0  0  0  0  0  0
   28.7800   25.8620   13.6730 C   0  0  0  0  0  0  0  0  0  0  0  0
   27.9360   26.9190   14.0780 C   0  0  0  0  0  0  0  0  0  0  0  0
   28.3500   27.8540   15.0140 C   0  0  0  0  0  0  0  0  0  0  0  0
   29.6270   27.7160   15.5610 C   0  0  0  0  0  0  0  0  0  0  0  0
   30.4670   26.6620   15.1680 C   0  0  0  0  0  0  0  0  0  0  0  0
   30.0470   25.7270   14.2160 C   0  0  0  0  0  0  0  0  0  0  0  0
   18.4780   21.9280   18.8010 C   0  0  0  0  0  0  0  0  0  0  0  0
   19.3460   23.0490   18.9040 O   0  0  0  0  0  0  0  0  0  0  0  0
   21.9430   25.9430   16.0270 O   0  0  0  0  0  0  0  0  0  0  0  0
   22.5160   26.5550   17.1880 C   0  0  0  0  0  0  0  0  0  0  0  0
   19.8710   24.1010    9.3870 O   0  0  0  0  0  0  0  0  0  0  0  0
   19.0270   25.2630    9.2600 C   0  0  0  0  0  0  0  0  0  0  0  0
   17.7560   24.9770    8.4360 C   0  0  0  0  0  0  0  0  0  0  0  0
   16.8490   24.3160    9.0210 O   0  0  0  0  0  0  0  0  0  0  0  0
   17.7910   25.3960    7.2400 O   0  0  0  0  0  1  0  0  0  0  0  0
   19.8990   21.2608   17.2074 H   0  0  0  0  0  0  0  0  0  0  0  0
   22.3510   21.0182   14.6544 H   0  0  0  0  0  0  0  0  0  0  0  0
   20.8094   20.3248   15.3052 H   0  0  0  0  0  0  0  0  0  0  0  0
   20.7025   20.6395   12.8947 H   0  0  0  0  0  0  0  0  0  0  0  0
   19.5597   21.7875   13.8672 H   0  0  0  0  0  0  0  0  0  0  0  0
   23.3009   22.7021   14.2820 H   0  0  0  0  0  0  0  0  0  0  0  0
   20.5064   25.4242   18.1420 H   0  0  0  0  0  0  0  0  0  0  0  0
   22.9523   25.4989   12.3245 H   0  0  0  0  0  0  0  0  0  0  0  0
   21.6949   25.6490   10.1938 H   0  0  0  0  0  0  0  0  0  0  0  0
   19.5057   22.0967   11.2170 H   0  0  0  0  0  0  0  0  0  0  0  0
   23.4650   25.6618   14.2777 H   0  0  0  0  0  0  0  0  0  0  0  0
   24.5068   26.4824   13.6855 H   0  0  0  0  0  0  0  0  0  0  0  0
   25.3037   27.6001   14.8695 H   0  0  0  0  0  0  0  0  0  0  0  0
   26.3581   27.7670   12.7764 H   0  0  0  0  0  0  0  0  0  0  0  0
   24.9597   25.5290   11.3343 H   0  0  0  0  0  0  0  0  0  0  0  0
   25.6915   23.4940   10.0680 H   0  0  0  0  0  0  0  0  0  0  0  0
   27.9337   22.4903   10.4788 H   0  0  0  0  0  0  0  0  0  0  0  0
   29.4975   23.5055   12.1518 H   0  0  0  0  0  0  0  0  0  0  0  0
   27.6911   28.6811   15.3171 H   0  0  0  0  0  0  0  0  0  0  0  0
   29.9792   28.4417   16.3088 H   0  0  0  0  0  0  0  0  0  0  0  0
   31.4682   26.5702   15.6143 H   0  0  0  0  0  0  0  0  0  0  0  0
   30.7075   24.9038   13.9059 H   0  0  0  0  0  0  0  0  0  0  0  0
   18.2081   21.5794   19.8088 H   0  0  0  0  0  0  0  0  0  0  0  0
   17.5670   22.2184   18.2572 H   0  0  0  0  0  0  0  0  0  0  0  0
   18.9873   21.1187   18.2572 H   0  0  0  0  0  0  0  0  0  0  0  0
   22.0881   26.0979   18.0924 H   0  0  0  0  0  0  0  0  0  0  0  0
   23.6057   26.4047   17.1817 H   0  0  0  0  0  0  0  0  0  0  0  0
   22.2944   27.6324   17.1817 H   0  0  0  0  0  0  0  0  0  0  0  0
   18.7292   25.5952   10.2654 H   0  0  0  0  0  0  0  0  0  0  0  0
   19.6012   26.0395    8.7334 H   0  0  0  0  0  0  0  0  0  0  0  0
  2  1  2  0
  3  2  1  0
  4  3  1  0
  5  4  1  0
  6  5  1  0
  7  6  2  0
  8  7  1  0
  9  3  2  0
  9  8  1  0
 10  9  1  0
 11 10  2  0
 11  1  1  0
 12  7  1  0
 13 12  2  0
 14 13  1  0
 15 14  2  0
 15  6  1  0
 16  8  1  0
 17 16  1  0
 18 17  2  0
 19 17  1  0
 20 19  1  0
 21 20  1  0
 22 21  1  0
 23 22  2  0
 24 23  1  0
 25 24  2  0
 26 25  1  0
 27 22  1  0
 27 26  2  0
 28 27  1  0
 29 21  1  0
 29 28  2  0
 30 29  1  0
 31 30  2  0
 32 31  1  0
 33 32  2  0
 33 28  1  0
 35 34  1  0
 35  1  1  0
 36 10  1  0
 37 36  1  0
 38 14  1  0
 39 38  1  0
 40 39  1  0
 41 40  2  0
 42 40  1  0
  2 43  1  0
  4 44  1  0
  4 45  1  0
  5 46  1  0
  5 47  1  0
  8 48  1  6
 11 49  1  0
 12 50  1  0
 13 51  1  0
 15 52  1  0
 16 53  1  0
 20 54  1  0
 20 55  1  0
 21 56  1  0
 23 57  1  0
 24 58  1  0
 25 59  1  0
 26 60  1  0
 30 61  1  0
 31 62  1  0
 32 63  1  0
 33 64  1  0
 34 65  1  0
 34 66  1  0
 34 67  1  0
 37 68  1  0
 37 69  1  0
 37 70  1  0
 39 71  1  0
 39 72  1  0
M  CHG  1  42  -1
M  END
$$$$
=
     RDKit          3D

 30 31  0  0  0  0  0  0  0  0999 V2000
   18.9420   16.7540    4.5500 N   0  0  0  0  0  0  0  0  0  0  0  0
   18.0120   17.3630    5.3680 C   0  0  0  0  0  0  0  0  0  0  0  0
   18.1270   18.7200    6.3440 S   0  0  0  0  0  0  0  0  0  0  0  0
   16.4850   16.4660    5.3100 S   0  0  0  0  0  0  0  0  0  0  0  0
   17.1000   15.3280    4.1880 C   0  0  0  0  0  0  0  0  0  0  0  0
   16.4490   14.3240    3.5840 C   0  0  0  0  0  0  0  0  0  0  0  0
   18.5430   15.5840    3.9250 C   0  0  0  0  0  0  0  0  0  0  0  0
   19.2180   14.8130    3.2500 O   0  0  0  0  0  0  0  0  0  0  0  0
   15.0280   13.9970    3.6860 C   0  0  0  0  0  0  0  0  0  0  0  0
   14.1170   14.8470    4.3070 C   0  0  0  0  0  0  0  0  0  0  0  0
   12.7690   14.4960    4.3270 C   0  0  0  0  0  0  0  0  0  0  0  0
   12.3670   13.3180    3.7110 C   0  0  0  0  0  0  0  0  0  0  0  0
   13.3340   12.5440    3.0920 C   0  0  0  0  0  0  0  0  0  0  0  0
   14.6460   12.8610    3.0530 N   0  0  0  0  0  0  0  0  0  0  0  0
   20.3140   17.2670    4.2860 C   0  0  2  0  0  0  0  0  0  0  0  0
   20.4630   17.8580    2.8460 C   0  0  0  0  0  0  0  0  0  0  0  0
   21.6430   18.2050    2.5200 O   0  0  0  0  0  0  0  0  0  0  0  0
   19.4180   17.9150    2.1320 O   0  0  0  0  0  1  0  0  0  0  0  0
   21.4140   16.2900    4.7300 C   0  0  0  0  0  0  0  0  0  0  0  0
   21.3180   15.7220    7.0340 O   0  0  0  0  0  1  0  0  0  0  0  0
   21.8560   16.4880    6.1780 C   0  0  0  0  0  0  0  0  0  0  0  0
   22.7510   17.3620    6.3670 O   0  0  0  0  0  0  0  0  0  0  0  0
   17.0536   13.6711    2.9373 H   0  0  0  0  0  0  0  0  0  0  0  0
   14.4568   15.7826    4.7753 H   0  0  0  0  0  0  0  0  0  0  0  0
   12.0322   15.1438    4.8245 H   0  0  0  0  0  0  0  0  0  0  0  0
   11.3113   13.0089    3.7147 H   0  0  0  0  0  0  0  0  0  0  0  0
   13.0135   11.6130    2.6015 H   0  0  0  0  0  0  0  0  0  0  0  0
   20.4737   18.1358    4.9416 H   0  0  0  0  0  0  0  0  0  0  0  0
   21.0337   15.2638    4.6192 H   0  0  0  0  0  0  0  0  0  0  0  0
   22.2916   16.4804    4.0948 H   0  0  0  0  0  0  0  0  0  0  0  0
  2  1  1  0
  3  2  2  0
  4  2  1  0
  5  4  1  0
  6  5  2  0
  7  5  1  0
  7  1  1  0
  8  7  2  0
  9  6  1  0
 10  9  2  0
 11 10  1  0
 12 11  2  0
 13 12  1  0
 14 13  2  0
 14  9  1  0
 15  1  1  0
 16 15  1  0
 17 16  2  0
 18 16  1  0
 19 15  1  0
 21 19  1  0
 21 20  1  0
 22 21  2  0
  6 23  1  0
 10 24  1  0
 11 25  1  0
 12 26  1  0
 13 27  1  0
 15 28  1  1
 19 29  1  0
 19 30  1  0
M  CHG  2  18  -1  20  -1
M  END
$$$$
=
     RDKit          3D

 46 48  0  0  0  0  0  0  0  0999 V2000
   24.7560   26.6940   15.8040 N   0  0  0  0  0  0  0  0  0  0  0  0
   25.8230   27.5050   15.6270 C   0  0  0  0  0  0  0  0  0  0  0  0
   25.9250   28.6550   16.0250 O   0  0  0  0  0  0  0  0  0  0  0  0
   23.4680   27.1310   16.3670 C   0  0  2  0  0  0  0  0  0  0  0  0
   23.3400   26.8140   17.8810 C   0  0  0  0  0  0  0  0  0  0  0  0
   22.6480   25.7720   18.1330 O   0  0  0  0  0  0  0  0  0  0  0  0
   23.9160   27.6080   18.6720 O   0  0  0  0  0  1  0  0  0  0  0  0
   22.2890   26.3710   15.7380 C   0  0  0  0  0  0  0  0  0  0  0  0
   22.9920   24.4720   14.3000 C   0  0  0  0  0  0  0  0  0  0  0  0
   22.8780   23.6360   15.1930 O   0  0  0  0  0  0  0  0  0  0  0  0
   22.6330   25.7910   14.4420 N   0  0  0  0  0  0  0  0  0  0  0  0
   24.2760   25.7600   12.1610 Br  0  0  0  0  0  0  0  0  0  0  0  0
   23.5420   24.1360   12.9340 C   0  0  0  0  0  0  0  0  0  0  0  0
   26.7790   26.8370   14.9310 O   0  0  0  0  0  0  0  0  0  0  0  0
   27.5830   27.6540   14.0630 C   0  0  0  0  0  0  0  0  0  0  0  0
   28.8790   26.9400   13.6550 C   0  0  0  0  0  0  0  0  0  0  0  0
   28.6150   25.7310   12.7640 C   0  0  0  0  0  0  0  0  0  0  0  0
   28.0150   25.7040   11.5130 C   0  0  0  0  0  0  0  0  0  0  0  0
   27.8850   24.4710   10.8720 C   0  0  0  0  0  0  0  0  0  0  0  0
   28.3570   23.2930   11.4770 C   0  0  0  0  0  0  0  0  0  0  0  0
   28.9720   23.3300   12.7330 C   0  0  0  0  0  0  0  0  0  0  0  0
   29.1010   24.5540   13.3710 C   0  0  0  0  0  0  0  0  0  0  0  0
   29.6960   24.8940   14.6450 C   0  0  0  0  0  0  0  0  0  0  0  0
   29.5840   26.2880   14.8440 C   0  0  0  0  0  0  0  0  0  0  0  0
   30.0880   26.8970   15.9840 C   0  0  0  0  0  0  0  0  0  0  0  0
   30.7030   26.0910   16.9430 C   0  0  0  0  0  0  0  0  0  0  0  0
   30.8110   24.7030   16.7540 C   0  0  0  0  0  0  0  0  0  0  0  0
   30.3060   24.0960   15.5990 C   0  0  0  0  0  0  0  0  0  0  0  0
   24.8504   25.7064   15.5270 H   0  0  0  0  0  0  0  0  0  0  0  0
   23.4402   28.2124   16.1673 H   0  0  0  0  0  0  0  0  0  0  0  0
   21.9859   25.5618   16.4187 H   0  0  0  0  0  0  0  0  0  0  0  0
   21.4711   27.0892   15.5795 H   0  0  0  0  0  0  0  0  0  0  0  0
   22.6055   26.3915   13.6056 H   0  0  0  0  0  0  0  0  0  0  0  0
   22.7363   23.7492   12.2927 H   0  0  0  0  0  0  0  0  0  0  0  0
   24.3241   23.3669   13.0173 H   0  0  0  0  0  0  0  0  0  0  0  0
   27.0047   27.8891   13.1573 H   0  0  0  0  0  0  0  0  0  0  0  0
   27.8523   28.5717   14.6065 H   0  0  0  0  0  0  0  0  0  0  0  0
   29.4652   27.7349   13.1708 H   0  0  0  0  0  0  0  0  0  0  0  0
   27.6521   26.6283   11.0399 H   0  0  0  0  0  0  0  0  0  0  0  0
   27.4078   24.4204    9.8822 H   0  0  0  0  0  0  0  0  0  0  0  0
   28.2414   22.3308   10.9566 H   0  0  0  0  0  0  0  0  0  0  0  0
   29.3449   22.4084   13.2038 H   0  0  0  0  0  0  0  0  0  0  0  0
   30.0052   27.9844   16.1280 H   0  0  0  0  0  0  0  0  0  0  0  0
   31.1081   26.5479   17.8579 H   0  0  0  0  0  0  0  0  0  0  0  0
   31.2984   24.0861   17.5233 H   0  0  0  0  0  0  0  0  0  0  0  0
   30.3914   23.0093   15.4517 H   0  0  0  0  0  0  0  0  0  0  0  0
  2  1  1  0
  3  2  2  0
  4  1  1  0
  5  4  1  0
  6  5  2  0
  7  5  1  0
  8  4  1  0
 10  9  2  0
 11  9  1  0
 11  8  1  0
 13 12  1  0
 13  9  1  0
 14  2  1  0
 15 14  1  0
 16 15  1  0
 17 16  1  0
 18 17  2  0
 19 18  1  0
 20 19  2  0
 21 20  1  0
 22 21  2  0
 22 17  1  0
 23 22  1  0
 24 23  2  0
 24 16  1  0
 25 24  1  0
 26 25  2  0
 27 26  1  0
 28 23  1  0
 28 27  2  0
  1 29  1  0
  4 30  1  1
  8 31  1  0
  8 32  1  0
 11 33  1  0
 13 34  1  0
 13 35  1  0
 15 36  1  0
 15 37  1  0
 16 38  1  0
 18 39  1  0
 19 40  1  0
 20 41  1  0
 21 42  1  0
 25 43  1  0
 26 44  1  0
 27 45  1  0
 28 46  1  0
M  CHG  1   7  -1
M  END
$$$$
=
     RDKit          3D

 27 29  0  0  0  0  0  0  0  0999 V2000
   16.7380   13.7740    3.4840 C   0  0  0  0  0  0  0  0  0  0  0  0
   17.7840   13.0230    3.0090 N   0  0  0  0  0  0  0  0  0  0  0  0
   18.9060   13.6990    3.2160 N   0  0  0  0  0  0  0  0  0  0  0  0
   18.5870   14.9100    3.7440 N   0  0  0  0  0  0  0  0  0  0  0  0
   17.2420   14.9340    4.0490 C   0  0  0  0  0  0  0  0  0  0  0  0
   19.5940   15.9080    3.8880 C   0  0  0  0  0  0  0  0  0  0  0  0
   20.5670   15.8340    4.8940 C   0  0  0  0  0  0  0  0  0  0  0  0
   21.5360   16.8360    5.0110 C   0  0  0  0  0  0  0  0  0  0  0  0
   21.5240   17.9140    4.1340 C   0  0  0  0  0  0  0  0  0  0  0  0
   20.5570   18.0160    3.1440 C   0  0  0  0  0  0  0  0  0  0  0  0
   19.5860   17.0190    3.0230 C   0  0  0  0  0  0  0  0  0  0  0  0
   22.4550   18.8720    4.2530 F   0  0  0  0  0  0  0  0  0  0  0  0
   14.8690   12.6340    2.3940 O   0  0  0  0  0  1  0  0  0  0  0  0
   15.2110   13.3410    3.3960 C   0  0  0  0  0  0  0  0  0  0  0  0
   14.4480   13.7250    4.3370 O   0  0  0  0  0  0  0  0  0  0  0  0
   16.4130   15.9700    4.8580 C   0  0  0  0  0  0  0  0  0  0  0  0
   16.3630   15.8200    6.3610 C   0  0  0  0  0  0  0  0  0  0  0  0
   17.1080   16.9650    5.7550 C   0  0  0  0  0  0  0  0  0  0  0  0
   20.5687   14.9853    5.5938 H   0  0  0  0  0  0  0  0  0  0  0  0
   22.3051   16.7709    5.7947 H   0  0  0  0  0  0  0  0  0  0  0  0
   20.5551   18.8765    2.4588 H   0  0  0  0  0  0  0  0  0  0  0  0
   18.8105   17.1024    2.2473 H   0  0  0  0  0  0  0  0  0  0  0  0
   15.6794   16.0514    4.0424 H   0  0  0  0  0  0  0  0  0  0  0  0
   15.4214   16.0011    6.9000 H   0  0  0  0  0  0  0  0  0  0  0  0
   16.6157   15.0177    7.0698 H   0  0  0  0  0  0  0  0  0  0  0  0
   18.2068   16.9899    5.7994 H   0  0  0  0  0  0  0  0  0  0  0  0
   17.0769   18.0585    5.8707 H   0  0  0  0  0  0  0  0  0  0  0  0
  2  1  1  0
  3  2  2  0
  4  3  1  0
  5  4  1  0
  5  1  2  0
  6  4  1  0
  7  6  2  0
  8  7  1  0
  9  8  2  0
 10  9  1  0
 11  6  1  0
 11 10  2  0
 12  9  1  0
 14 13  1  0
 14  1  1  0
 15 14  2  0
 16  5  1  0
 17 16  1  0
 18 16  1  0
 18 17  1  0
  7 19  1  0
  8 20  1  0
 10 21  1  0
 11 22  1  0
 16 23  1  0
 17 24  1  0
 17 25  1  0
 18 26  1  0
 18 27  1  0
M  CHG  1  13  -1
M  END
$$$$
=
     RDKit          3D

 44 45  0  0  0  0  0  0  0  0999 V2000
   11.9430   13.8820    3.7880 N   0  0  0  0  0  0  0  0  0  0  0  0
   13.2300   12.8440    3.5230 S   0  0  0  0  0  6  0  0  0  0  0  0
   13.2020   11.8100    4.5360 O   0  0  0  0  0  0  0  0  0  0  0  0
   13.3190   12.5180    2.1150 O   0  0  0  0  0  0  0  0  0  0  0  0
   14.6180   13.8810    3.9370 C   0  0  0  0  0  0  0  0  0  0  0  0
   15.8400   13.7160    3.2850 C   0  0  0  0  0  0  0  0  0  0  0  0
   16.8850   14.6020    3.5550 C   0  0  0  0  0  0  0  0  0  0  0  0
   16.7220   15.6420    4.4830 C   0  0  0  0  0  0  0  0  0  0  0  0
   15.5060   15.7670    5.1600 C   0  0  0  0  0  0  0  0  0  0  0  0
   14.4520   14.8900    4.8880 C   0  0  0  0  0  0  0  0  0  0  0  0
   17.8020   16.5340    4.6380 N   0  0  0  0  0  0  0  0  0  0  0  0
   18.8730   16.4180    5.5050 C   0  0  0  0  0  0  0  0  0  0  0  0
   19.1520   15.4560    6.2130 O   0  0  0  0  0  0  0  0  0  0  0  0
   19.7670   17.6310    5.4710 C   0  0  0  0  0  0  0  0  0  0  0  0
   10.6180   13.3270    4.1680 C   0  0  2  0  0  0  0  0  0  0  0  0
    9.6630   13.2480    2.9810 C   0  0  0  0  0  0  0  0  0  0  0  0
    9.7440   12.1590    2.0960 C   0  0  0  0  0  0  0  0  0  0  0  0
    8.9110   12.0780    0.9770 C   0  0  0  0  0  0  0  0  0  0  0  0
    7.9910   13.0920    0.7170 C   0  0  0  0  0  0  0  0  0  0  0  0
    7.9040   14.1790    1.5970 C   0  0  0  0  0  0  0  0  0  0  0  0
    8.7170   14.2560    2.7330 C   0  0  0  0  0  0  0  0  0  0  0  0
    6.9740   15.2670    1.2930 N   0  0  0  0  0  4  0  0  0  0  0  0
    7.2160   16.3870    1.7630 O   0  0  0  0  0  0  0  0  0  0  0  0
    5.9880   14.9960    0.5880 O   0  0  0  0  0  1  0  0  0  0  0  0
   10.0000   14.2040    5.2570 C   0  0  0  0  0  0  0  0  0  0  0  0
    9.1140   13.1320    7.1550 O   0  0  0  0  0  1  0  0  0  0  0  0
   10.1800   13.4630    6.5710 C   0  0  0  0  0  0  0  0  0  0  0  0
   11.3870   13.2700    6.9070 O   0  0  0  0  0  0  0  0  0  0  0  0
   12.2263   14.5230    4.5428 H   0  0  0  0  0  0  0  0  0  0  0  0
   15.9791   12.8960    2.5652 H   0  0  0  0  0  0  0  0  0  0  0  0
   17.8467   14.4834    3.0344 H   0  0  0  0  0  0  0  0  0  0  0  0
   15.3774   16.5601    5.9113 H   0  0  0  0  0  0  0  0  0  0  0  0
   13.4955   14.9943    5.4211 H   0  0  0  0  0  0  0  0  0  0  0  0
   17.7925   17.3694    4.0355 H   0  0  0  0  0  0  0  0  0  0  0  0
   19.9984   17.9449    6.4996 H   0  0  0  0  0  0  0  0  0  0  0  0
   20.7005   17.3838    4.9443 H   0  0  0  0  0  0  0  0  0  0  0  0
   19.2545   18.4495    4.9443 H   0  0  0  0  0  0  0  0  0  0  0  0
   10.7766   12.3025    4.5358 H   0  0  0  0  0  0  0  0  0  0  0  0
   10.4740   11.3586    2.2871 H   0  0  0  0  0  0  0  0  0  0  0  0
    8.9815   11.2132    0.3008 H   0  0  0  0  0  0  0  0  0  0  0  0
    7.3407   13.0397   -0.1687 H   0  0  0  0  0  0  0  0  0  0  0  0
    8.6158   15.1021    3.4287 H   0  0  0  0  0  0  0  0  0  0  0  0
   10.5130   15.1762    5.2970 H   0  0  0  0  0  0  0  0  0  0  0  0
    8.9359   14.3951    5.0538 H   0  0  0  0  0  0  0  0  0  0  0  0
  2  1  1  0
  3  2  2  0
  4  2  2  0
  5  2  1  0
  6  5  2  0
  7  6  1  0
  8  7  2  0
  9  8  1  0
 10  9  2  0
 10  5  1  0
 11  8  1  0
 12 11  1  0
 13 12  2  0
 14 12  1  0
 15  1  1  0
 16 15  1  0
 17 16  2  0
 18 17  1  0
 19 18  2  0
 20 19  1  0
 21 20  2  0
 21 16  1  0
 22 20  1  0
 23 22  2  0
 24 22  1  0
 25 15  1  0
 27 25  1  0
 27 26  1  0
 28 27  2  0
  1 29  1  0
  6 30  1  0
  7 31  1  0
  9 32  1  0
 10 33  1  0
 11 34  1  0
 14 35  1  0
 14 36  1  0
 14 37  1  0
 15 38  1  1
 17 39  1  0
 18 40  1  0
 19 41  1  0
 21 42  1  0
 25 43  1  0
 25 44  1  0
M  CHG  3  22   1  24  -1  26  -1
M  END
$$$$
=
     RDKit          3D

 42 43  0  0  0  0  0  0  0  0999 V2000
   19.3460   14.7710    3.2200 O   0  0  0  0  0  0  0  0  0  0  0  0
   18.9250   14.5740    4.3500 C   0  0  0  0  0  0  0  0  0  0  0  0
   17.6260   14.6740    4.7460 N   0  0  0  0  0  0  0  0  0  0  0  0
   16.5900   15.2560    3.9070 C   0  0  2  0  0  0  0  0  0  0  0  0
   15.5550   15.9890    4.7800 C   0  0  0  0  0  0  0  0  0  0  0  0
   14.1600   15.9590    4.1620 C   0  0  0  0  0  0  0  0  0  0  0  0
   13.6440   14.5180    4.0040 C   0  0  1  0  0  0  0  0  0  0  0  0
   14.7710   13.5160    3.7010 C   0  0  0  0  0  0  0  0  0  0  0  0
   15.9570   14.1770    3.0140 C   0  0  0  0  0  0  0  0  0  0  0  0
   13.0290   14.0760    5.2190 O   0  0  0  0  0  0  0  0  0  0  0  0
   11.8430   13.2730    5.0090 C   0  0  0  0  0  0  0  0  0  0  0  0
   10.5440   14.1130    4.9510 C   0  0  0  0  0  0  0  0  0  0  0  0
    9.9650   14.2740    6.0670 O   0  0  0  0  0  0  0  0  0  0  0  0
   10.1970   14.5220    3.8050 O   0  0  0  0  0  1  0  0  0  0  0  0
   19.6830   14.2290    5.4150 O   0  0  0  0  0  0  0  0  0  0  0  0
   19.6560   15.1930    6.4710 C   0  0  0  0  0  0  0  0  0  0  0  0
   20.4440   16.4080    6.0430 C   0  0  0  0  0  0  0  0  0  0  0  0
   19.7910   17.5640    5.5960 C   0  0  0  0  0  0  0  0  0  0  0  0
   20.5250   18.6910    5.2190 C   0  0  0  0  0  0  0  0  0  0  0  0
   21.9170   18.6740    5.2890 C   0  0  0  0  0  0  0  0  0  0  0  0
   22.5770   17.5310    5.7360 C   0  0  0  0  0  0  0  0  0  0  0  0
   21.8450   16.4040    6.1130 C   0  0  0  0  0  0  0  0  0  0  0  0
   17.3661   14.3228    5.6787 H   0  0  0  0  0  0  0  0  0  0  0  0
   17.0345   16.0043    3.2343 H   0  0  0  0  0  0  0  0  0  0  0  0
   15.5164   15.5046    5.7669 H   0  0  0  0  0  0  0  0  0  0  0  0
   15.8662   17.0407    4.8641 H   0  0  0  0  0  0  0  0  0  0  0  0
   13.4693   16.5168    4.8115 H   0  0  0  0  0  0  0  0  0  0  0  0
   14.2150   16.4173    3.1635 H   0  0  0  0  0  0  0  0  0  0  0  0
   12.9335   14.5443    3.1646 H   0  0  0  0  0  0  0  0  0  0  0  0
   15.1126   13.0701    4.6468 H   0  0  0  0  0  0  0  0  0  0  0  0
   14.3693   12.7509    3.0204 H   0  0  0  0  0  0  0  0  0  0  0  0
   16.7128   13.4105    2.7878 H   0  0  0  0  0  0  0  0  0  0  0  0
   15.6001   14.6564    2.0905 H   0  0  0  0  0  0  0  0  0  0  0  0
   11.9516   12.7299    4.0586 H   0  0  0  0  0  0  0  0  0  0  0  0
   11.7537   12.5891    5.8659 H   0  0  0  0  0  0  0  0  0  0  0  0
   18.6156   15.4824    6.6805 H   0  0  0  0  0  0  0  0  0  0  0  0
   20.0993   14.7622    7.3809 H   0  0  0  0  0  0  0  0  0  0  0  0
   18.6925   17.5843    5.5415 H   0  0  0  0  0  0  0  0  0  0  0  0
   20.0038   19.5932    4.8664 H   0  0  0  0  0  0  0  0  0  0  0  0
   22.4940   19.5620    4.9917 H   0  0  0  0  0  0  0  0  0  0  0  0
   23.6755   17.5169    5.7918 H   0  0  0  0  0  0  0  0  0  0  0  0
   22.3710   15.5054    6.4679 H   0  0  0  0  0  0  0  0  0  0  0  0
  2  1  2  0
  3  2  1  0
  4  3  1  0
  5  4  1  0
  6  5  1  0
  7  6  1  0
  8  7  1  0
  9  8  1  0
  9  4  1  0
 10  7  1  0
 11 10  1  0
 12 11  1  0
 13 12  2  0
 14 12  1  0
 15  2  1  0
 16 15  1  0
 17 16  1  0
 18 17  2  0
 19 18  1  0
 20 19  2  0
 21 20  1  0
 22 17  1  0
 22 21  2  0
  3 23  1  0
  4 24  1  6
  5 25  1  0
  5 26  1  0
  6 27  1  0
  6 28  1  0
  7 29  1  6
  8 30  1  0
  8 31  1  0
  9 32  1  0
  9 33  1  0
 11 34  1  0
 11 35  1  0
 16 36  1  0
 16 37  1  0
 18 38  1  0
 19 39  1  0
 20 40  1  0
 21 41  1  0
 22 42  1  0
M  CHG  1  14  -1
M  END
$$$$
=
     RDKit          3D

 24 25  0  0  0  0  0  0  0  0999 V2000
   17.3710   17.5380    6.3910 F   0  0  0  0  0  0  0  0  0  0  0  0
   17.2100   16.5570    5.4860 C   0  0  0  0  0  0  0  0  0  0  0  0
   15.9230   16.0640    5.2790 C   0  0  0  0  0  0  0  0  0  0  0  0
   15.6940   15.0410    4.3480 C   0  0  0  0  0  0  0  0  0  0  0  0
   16.7940   14.5420    3.6340 C   0  0  0  0  0  0  0  0  0  0  0  0
   18.0850   15.0430    3.8460 C   0  0  0  0  0  0  0  0  0  0  0  0
   18.3210   16.0590    4.7850 C   0  0  0  0  0  0  0  0  0  0  0  0
   19.6840   16.5650    5.0370 C   0  0  0  0  0  0  0  0  0  0  0  0
   20.5170   15.9420    5.9890 C   0  0  0  0  0  0  0  0  0  0  0  0
   21.8150   16.4020    6.2390 C   0  0  0  0  0  0  0  0  0  0  0  0
   22.3110   17.4960    5.5370 C   0  0  0  0  0  0  0  0  0  0  0  0
   21.5040   18.1210    4.5930 C   0  0  0  0  0  0  0  0  0  0  0  0
   20.2110   17.6650    4.3440 C   0  0  0  0  0  0  0  0  0  0  0  0
   19.4720   18.3080    3.4260 F   0  0  0  0  0  0  0  0  0  0  0  0
   21.9880   19.1740    3.9190 F   0  0  0  0  0  0  0  0  0  0  0  0
   14.3020   14.4890    4.1260 C   0  0  0  0  0  0  0  0  0  0  0  0
   13.3270   15.2720    4.3540 O   0  0  0  0  0  0  0  0  0  0  0  0
   14.2170   13.2860    3.7240 O   0  0  0  0  0  1  0  0  0  0  0  0
   15.0804   16.4807    5.8504 H   0  0  0  0  0  0  0  0  0  0  0  0
   16.6398   13.7427    2.8942 H   0  0  0  0  0  0  0  0  0  0  0  0
   18.9265   14.6338    3.2677 H   0  0  0  0  0  0  0  0  0  0  0  0
   20.1378   15.0741    6.5483 H   0  0  0  0  0  0  0  0  0  0  0  0
   22.4423   15.8991    6.9897 H   0  0  0  0  0  0  0  0  0  0  0  0
   23.3306   17.8625    5.7268 H   0  0  0  0  0  0  0  0  0  0  0  0
  2  1  1  0
  3  2  2  0
  4  3  1  0
  5  4  2  0
  6  5  1  0
  7  6  2  0
  7  2  1  0
  8  7  1  0
  9  8  2  0
 10  9  1  0
 11 10  2  0
 12 11  1  0
 13 12  2  0
 13  8  1  0
 14 13  1  0
 15 12  1  0
 16  4  1  0
 17 16  2  0
 18 16  1  0
  3 19  1  0
  5 20  1  0
  6 21  1  0
  9 22  1  0
 10 23  1  0
 11 24  1  0
M  CHG  1  18  -1
M  END
$$$$
=
     RDKit          3D

 20 21  0  0  0  0  0  0  0  0999 V2000
   19.8960   16.4010    4.4090 C   0  0  0  0  0  0  0  0  0  0  0  0
   21.1690   16.5470    5.0040 C   0  0  0  0  0  0  0  0  0  0  0  0
   21.5210   15.8430    6.1550 C   0  0  0  0  0  0  0  0  0  0  0  0
   20.6060   14.9730    6.7330 C   0  0  0  0  0  0  0  0  0  0  0  0
   19.3380   14.8280    6.1690 C   0  0  0  0  0  0  0  0  0  0  0  0
   18.9520   15.5490    5.0170 C   0  0  0  0  0  0  0  0  0  0  0  0
   17.5650   15.3660    4.5540 C   0  0  0  0  0  0  0  0  0  0  0  0
   17.1930   14.4710    3.6490 N   0  0  0  0  0  0  0  0  0  0  0  0
   15.8280   14.5330    3.4650 C   0  0  0  0  0  0  0  0  0  0  0  0
   15.1490   15.3900    4.3000 C   0  0  0  0  0  0  0  0  0  0  0  0
   16.2540   16.1530    5.3610 S   0  0  0  0  0  0  0  0  0  0  0  0
   19.7650   16.5050    2.0380 O   0  0  0  0  0  1  0  0  0  0  0  0
   19.6330   17.1450    3.1260 C   0  0  0  0  0  0  0  0  0  0  0  0
   19.3360   18.3770    3.2380 O   0  0  0  0  0  0  0  0  0  0  0  0
   21.8995   17.2319    4.5487 H   0  0  0  0  0  0  0  0  0  0  0  0
   22.5171   15.9760    6.6023 H   0  0  0  0  0  0  0  0  0  0  0  0
   20.8796   14.4006    7.6316 H   0  0  0  0  0  0  0  0  0  0  0  0
   18.6209   14.1349    6.6330 H   0  0  0  0  0  0  0  0  0  0  0  0
   15.3139   13.9346    2.6984 H   0  0  0  0  0  0  0  0  0  0  0  0
   14.0621   15.5590    4.2876 H   0  0  0  0  0  0  0  0  0  0  0  0
  2  1  2  0
  3  2  1  0
  4  3  2  0
  5  4  1  0
  6  5  2  0
  6  1  1  0
  7  6  1  0
  8  7  2  0
  9  8  1  0
 10  9  2  0
 11 10  1  0
 11  7  1  0
 13 12  1  0
 13  1  1  0
 14 13  2  0
  2 15  1  0
  3 16  1  0
  4 17  1  0
  5 18  1  0
  9 19  1  0
 10 20  1  0
M  CHG  1  12  -1
M  END
$$$$
=
     RDKit          3D

 26 26  0  0  0  0  0  0  0  0999 V2000
   17.8930   15.7650    4.8210 C   0  0  0  0  0  0  0  0  0  0  0  0
   18.2620   17.0610    4.7360 C   0  0  0  0  0  0  0  0  0  0  0  0
   19.6010   17.6030    4.4510 C   0  0  0  0  0  0  0  0  0  0  0  0
   19.9710   17.8480    3.1200 C   0  0  0  0  0  0  0  0  0  0  0  0
   21.2530   18.3160    2.8110 C   0  0  0  0  0  0  0  0  0  0  0  0
   22.1750   18.5440    3.8300 C   0  0  0  0  0  0  0  0  0  0  0  0
   21.8090   18.3030    5.1470 C   0  0  0  0  0  0  0  0  0  0  0  0
   20.5430   17.8130    5.4620 C   0  0  0  0  0  0  0  0  0  0  0  0
   22.7140   18.5680    6.1350 O   0  0  0  0  0  0  0  0  0  0  0  0
   14.2720   14.8150    4.8330 C   0  0  0  0  0  0  0  0  0  0  0  0
   15.6280   14.9820    4.1910 C   0  0  0  0  0  0  0  0  0  0  0  0
   15.7980   14.6620    3.0220 O   0  0  0  0  0  0  0  0  0  0  0  0
   16.5550   15.4850    5.0860 N   0  0  0  0  0  0  0  0  0  0  0  0
   18.9780   14.6350    4.6370 C   0  0  0  0  0  0  0  0  0  0  0  0
   19.5900   14.3100    5.6970 O   0  0  0  0  0  0  0  0  0  0  0  0
   19.1540   14.2660    3.4360 O   0  0  0  0  0  1  0  0  0  0  0  0
   17.4656   17.8019    4.8995 H   0  0  0  0  0  0  0  0  0  0  0  0
   19.2464   17.6705    2.3117 H   0  0  0  0  0  0  0  0  0  0  0  0
   21.5326   18.5038    1.7638 H   0  0  0  0  0  0  0  0  0  0  0  0
   23.1842   18.9118    3.5930 H   0  0  0  0  0  0  0  0  0  0  0  0
   20.2847   17.5911    6.5080 H   0  0  0  0  0  0  0  0  0  0  0  0
   22.4755   18.4040    7.0817 H   0  0  0  0  0  0  0  0  0  0  0  0
   14.3804   14.8283    5.9276 H   0  0  0  0  0  0  0  0  0  0  0  0
   13.6140   15.6389    4.5196 H   0  0  0  0  0  0  0  0  0  0  0  0
   13.8335   13.8561    4.5196 H   0  0  0  0  0  0  0  0  0  0  0  0
   16.2227   15.6708    6.0431 H   0  0  0  0  0  0  0  0  0  0  0  0
  2  1  2  0
  3  2  1  0
  4  3  2  0
  5  4  1  0
  6  5  2  0
  7  6  1  0
  8  3  1  0
  8  7  2  0
  9  7  1  0
 11 10  1  0
 12 11  2  0
 13 11  1  0
 13  1  1  0
 14  1  1  0
 15 14  2  0
 16 14  1  0
  2 17  1  0
  4 18  1  0
  5 19  1  0
  6 20  1  0
  8 21  1  0
  9 22  1  0
 10 23  1  0
 10 24  1  0
 10 25  1  0
 13 26  1  0
M  CHG  1  16  -1
M  END
$$$$
=
     RDKit          3D

 42 44  0  0  0  0  0  0  0  0999 V2000
   15.1160   14.6690    4.0660 C   0  0  0  0  0  0  0  0  0  0  0  0
   16.1240   13.9500    3.5490 C   0  0  0  0  0  0  0  0  0  0  0  0
   15.9360   12.7340    2.7450 C   0  0  0  0  0  0  0  0  0  0  0  0
   16.9040   12.1290    2.2950 O   0  0  0  0  0  0  0  0  0  0  0  0
   14.6350   12.3270    2.5220 O   0  0  0  0  0  0  0  0  0  0  0  0
   13.5520   13.0330    3.0790 C   0  0  0  0  0  0  0  0  0  0  0  0
   13.7440   14.1820    3.8500 C   0  0  0  0  0  0  0  0  0  0  0  0
   12.6020   14.7960    4.3780 C   0  0  0  0  0  0  0  0  0  0  0  0
   11.3200   14.2820    4.1300 C   0  0  0  0  0  0  0  0  0  0  0  0
   11.1550   13.1380    3.3500 C   0  0  0  0  0  0  0  0  0  0  0  0
   12.2820   12.5110    2.8230 C   0  0  0  0  0  0  0  0  0  0  0  0
   15.3920   15.9130    4.8790 C   0  0  0  0  0  0  0  0  0  0  0  0
   16.2080   15.6730    6.1600 C   0  0  0  0  0  0  0  0  0  0  0  0
   18.7270   15.3500    5.9020 C   0  0  0  0  0  0  0  0  0  0  0  0
   17.5950   16.3230    6.1900 C   0  0  0  0  0  0  0  0  0  0  0  0
    9.9660   12.5410    3.0350 O   0  0  0  0  0  0  0  0  0  0  0  0
    8.7900   13.0870    3.6390 C   0  0  0  0  0  0  0  0  0  0  0  0
    8.0220   13.8070    2.5940 C   0  0  0  0  0  0  0  0  0  0  0  0
    7.4750   13.4630    1.3770 C   0  0  0  0  0  0  0  0  0  0  0  0
    6.8630   14.6340    0.8710 C   0  0  0  0  0  0  0  0  0  0  0  0
    7.0670   15.6320    1.8060 C   0  0  0  0  0  0  0  0  0  0  0  0
    7.7780   15.1220    2.8600 O   0  0  0  0  0  0  0  0  0  0  0  0
    6.5550   17.1270    1.6690 C   0  0  0  0  0  0  0  0  0  0  0  0
    6.8160   17.9120    2.6310 O   0  0  0  0  0  0  0  0  0  0  0  0
    5.9250   17.4100    0.6020 O   0  0  0  0  0  1  0  0  0  0  0  0
   17.1526   14.2910    3.7382 H   0  0  0  0  0  0  0  0  0  0  0  0
   12.7116   15.6977    4.9985 H   0  0  0  0  0  0  0  0  0  0  0  0
   10.4386   14.7853    4.5541 H   0  0  0  0  0  0  0  0  0  0  0  0
   12.1719   11.6067    2.2065 H   0  0  0  0  0  0  0  0  0  0  0  0
   15.9477   16.6203    4.2458 H   0  0  0  0  0  0  0  0  0  0  0  0
   14.4133   16.2985    5.2007 H   0  0  0  0  0  0  0  0  0  0  0  0
   15.6303   16.0678    7.0088 H   0  0  0  0  0  0  0  0  0  0  0  0
   16.3819   14.5879    6.2084 H   0  0  0  0  0  0  0  0  0  0  0  0
   19.1490   14.9873    6.8508 H   0  0  0  0  0  0  0  0  0  0  0  0
   18.3401   14.4982    5.3234 H   0  0  0  0  0  0  0  0  0  0  0  0
   19.5110   15.8605    5.3234 H   0  0  0  0  0  0  0  0  0  0  0  0
   17.6216   17.1217    5.4341 H   0  0  0  0  0  0  0  0  0  0  0  0
   17.7502   16.7075    7.2089 H   0  0  0  0  0  0  0  0  0  0  0  0
    8.1768   12.2762    4.0592 H   0  0  0  0  0  0  0  0  0  0  0  0
    9.0656   13.7769    4.4502 H   0  0  0  0  0  0  0  0  0  0  0  0
    7.5076   12.4748    0.8949 H   0  0  0  0  0  0  0  0  0  0  0  0
    6.3269   14.7318   -0.0845 H   0  0  0  0  0  0  0  0  0  0  0  0
  2  1  2  0
  3  2  1  0
  4  3  2  0
  5  3  1  0
  6  5  1  0
  7  6  2  0
  7  1  1  0
  8  7  1  0
  9  8  2  0
 10  9  1  0
 11 10  2  0
 11  6  1  0
 12  1  1  0
 13 12  1  0
 15 13  1  0
 15 14  1  0
 16 10  1  0
 17 16  1  0
 18 17  1  0
 19 18  2  0
 20 19  1  0
 21 20  2  0
 22 21  1  0
 22 18  1  0
 23 21  1  0
 24 23  2  0
 25 23  1  0
  2 26  1  0
  8 27  1  0
  9 28  1  0
 11 29  1  0
 12 30  1  0
 12 31  1  0
 13 32  1  0
 13 33  1  0
 14 34  1  0
 14 35  1  0
 14 36  1  0
 15 37  1  0
 15 38  1  0
 17 39  1  0
 17 40  1  0
 19 41  1  0
 20 42  1  0
M  CHG  1  25  -1
M  END
$$$$
=
     RDKit          3D

 27 27  0  0  0  0  0  0  0  0999 V2000
   17.0630   15.9370    6.0320 S   0  0  0  0  0  0  0  0  0  0  0  0
   17.8970   17.5420    5.7160 C   0  0  0  0  0  0  0  0  0  0  0  0
   19.3420   17.3690    5.2470 C   0  0  0  0  0  0  0  0  0  0  0  0
   19.5770   17.9920    3.8720 C   0  0  0  0  0  0  0  0  0  0  0  0
   19.5050   15.8140    2.9340 O   0  0  0  0  0  1  0  0  0  0  0  0
   19.5280   17.0460    2.6710 C   0  0  0  0  0  0  0  0  0  0  0  0
   19.5090   17.6320    1.5510 O   0  0  0  0  0  0  0  0  0  0  0  0
   15.5850   16.1090    4.9860 C   0  0  0  0  0  0  0  0  0  0  0  0
   15.2330   14.8660    4.2100 C   0  0  0  0  0  0  0  0  0  0  0  0
   16.2000   14.2110    3.4310 C   0  0  0  0  0  0  0  0  0  0  0  0
   15.8730   13.0580    2.7160 C   0  0  0  0  0  0  0  0  0  0  0  0
   14.5780   12.5460    2.7700 C   0  0  0  0  0  0  0  0  0  0  0  0
   13.6100   13.1850    3.5440 C   0  0  0  0  0  0  0  0  0  0  0  0
   13.9340   14.3390    4.2580 C   0  0  0  0  0  0  0  0  0  0  0  0
   17.3367   18.0838    4.9398 H   0  0  0  0  0  0  0  0  0  0  0  0
   17.9179   18.1000    6.6638 H   0  0  0  0  0  0  0  0  0  0  0  0
   20.0114   17.8515    5.9744 H   0  0  0  0  0  0  0  0  0  0  0  0
   19.5472   16.2910    5.1706 H   0  0  0  0  0  0  0  0  0  0  0  0
   18.8079   18.7636    3.7200 H   0  0  0  0  0  0  0  0  0  0  0  0
   20.6093   18.3709    3.8992 H   0  0  0  0  0  0  0  0  0  0  0  0
   14.7325   16.3661    5.6319 H   0  0  0  0  0  0  0  0  0  0  0  0
   15.8088   16.8921    4.2466 H   0  0  0  0  0  0  0  0  0  0  0  0
   17.2240   14.6100    3.3838 H   0  0  0  0  0  0  0  0  0  0  0  0
   16.6385   12.5526    2.1089 H   0  0  0  0  0  0  0  0  0  0  0  0
   14.3199   11.6394    2.2031 H   0  0  0  0  0  0  0  0  0  0  0  0
   12.5890   12.7785    3.5917 H   0  0  0  0  0  0  0  0  0  0  0  0
   13.1643   14.8398    4.8637 H   0  0  0  0  0  0  0  0  0  0  0  0
  2  1  1  0
  3  2  1  0
  4  3  1  0
  6  5  1  0
  6  4  1  0
  7  6  2  0
  8  1  1  0
  9  8  1  0
 10  9  2  0
 11 10  1  0
 12 11  2  0
 13 12  1  0
 14 13  2  0
 14  9  1  0
  2 15  1  0
  2 16  1  0
  3 17  1  0
  3 18  1  0
  4 19  1  0
  4 20  1  0
  8 21  1  0
  8 22  1  0
 10 23  1  0
 11 24  1  0
 12 25  1  0
 13 26  1  0
 14 27  1  0
M  CHG  1   5  -1
M  END
$$$$
=
     RDKit          3D

 32 32  0  0  0  0  0  0  0  0999 V2000
   14.5780   15.5650    4.5210 C   0  0  0  0  0  0  0  0  0  0  0  0
   15.9750   15.1200    4.9550 C   0  0  0  0  0  0  0  0  0  0  0  0
   16.9560   15.2330    3.7760 C   0  0  0  0  0  0  0  0  0  0  0  0
   18.3960   15.3180    4.2540 C   0  0  0  0  0  0  0  0  0  0  0  0
   18.5870   16.5360    5.1060 N   0  0  0  0  0  4  0  0  0  0  0  0
   17.3680   17.0600    5.8100 C   0  0  0  0  0  0  0  0  0  0  0  0
   16.4570   15.9030    6.1880 C   0  0  0  0  0  0  0  0  0  0  0  0
   19.4390   17.6240    4.5070 C   0  0  0  0  0  0  0  0  0  0  0  0
   20.3200   18.3080    5.5600 C   0  0  0  0  0  0  0  0  0  0  0  0
   21.6790   17.6280    5.7580 C   0  0  0  0  0  0  0  0  0  0  0  0
   21.6020   16.1350    6.0540 C   0  0  0  0  0  0  0  0  0  0  0  0
   21.8220   15.3890    5.0510 O   0  0  0  0  0  0  0  0  0  0  0  0
   21.2040   15.8230    7.2010 O   0  0  0  0  0  1  0  0  0  0  0  0
   13.9625   15.7611    5.4114 H   0  0  0  0  0  0  0  0  0  0  0  0
   14.6558   16.4828    3.9197 H   0  0  0  0  0  0  0  0  0  0  0  0
   14.1106   14.7713    3.9197 H   0  0  0  0  0  0  0  0  0  0  0  0
   15.9295   14.0630    5.2561 H   0  0  0  0  0  0  0  0  0  0  0  0
   16.8449   14.3476    3.1328 H   0  0  0  0  0  0  0  0  0  0  0  0
   16.7225   16.1533    3.2205 H   0  0  0  0  0  0  0  0  0  0  0  0
   18.6369   14.4209    4.8432 H   0  0  0  0  0  0  0  0  0  0  0  0
   19.0612   15.3830    3.3803 H   0  0  0  0  0  0  0  0  0  0  0  0
   19.1579   16.1407    5.8668 H   0  0  0  0  0  0  0  0  0  0  0  0
   17.6739   17.5968    6.7201 H   0  0  0  0  0  0  0  0  0  0  0  0
   16.8274   17.7454    5.1407 H   0  0  0  0  0  0  0  0  0  0  0  0
   15.5806   16.3009    6.7205 H   0  0  0  0  0  0  0  0  0  0  0  0
   17.0312   15.2134    6.8242 H   0  0  0  0  0  0  0  0  0  0  0  0
   20.0861   17.1836    3.7341 H   0  0  0  0  0  0  0  0  0  0  0  0
   18.7688   18.3838    4.0786 H   0  0  0  0  0  0  0  0  0  0  0  0
   20.4938   19.3477    5.2458 H   0  0  0  0  0  0  0  0  0  0  0  0
   19.7848   18.2448    6.5189 H   0  0  0  0  0  0  0  0  0  0  0  0
   22.2692   17.7662    4.8401 H   0  0  0  0  0  0  0  0  0  0  0  0
   22.1384   18.0983    6.6399 H   0  0  0  0  0  0  0  0  0  0  0  0
  2  1  1  0
  3  2  1  0
  4  3  1  0
  5  4  1  0
  6  5  1  0
  7  2  1  0
  7  6  1  0
  8  5  1  0
  9  8  1  0
 10  9  1  0
 11 10  1  0
 12 11  2  0
 13 11  1  0
  1 14  1  0
  1 15  1  0
  1 16  1  0
  2 17  1  0
  3 18  1  0
  3 19  1  0
  4 20  1  0
  4 21  1  0
  5 22  1  0
  6 23  1  0
  6 24  1  0
  7 25  1  0
  7 26  1  0
  8 27  1  0
  8 28  1  0
  9 29  1  0
  9 30  1  0
 10 31  1  0
 10 32  1  0
M  CHG  2   5   1  13  -1
M  END
$$$$
=
     RDKit          3D

 32 32  0  0  0  0  0  0  0  0999 V2000
   17.4590   15.2320    4.4020 C   0  0  0  0  0  0  0  0  0  0  0  0
   16.9790   14.1520    3.6590 C   0  0  0  0  0  0  0  0  0  0  0  0
   15.5910   13.9470    3.5000 C   0  0  0  0  0  0  0  0  0  0  0  0
   14.6970   14.8510    4.1050 C   0  0  0  0  0  0  0  0  0  0  0  0
   15.1630   15.9210    4.8650 C   0  0  0  0  0  0  0  0  0  0  0  0
   16.5320   16.0870    5.0200 C   0  0  0  0  0  0  0  0  0  0  0  0
   19.3510   16.8000    2.6570 O   0  0  0  0  0  0  0  0  0  0  0  0
   19.6150   16.3140    3.7420 C   0  0  0  0  0  0  0  0  0  0  0  0
   18.8210   15.5540    4.5480 N   0  0  0  0  0  0  0  0  0  0  0  0
   20.8210   16.4340    4.3620 O   0  0  0  0  0  0  0  0  0  0  0  0
   21.2580   17.7130    4.8880 C   0  0  0  0  0  0  0  0  0  0  0  0
   20.1020   18.4740    5.5460 C   0  0  0  0  0  0  0  0  0  0  0  0
   21.9620   18.5500    3.8140 C   0  0  0  0  0  0  0  0  0  0  0  0
   22.2850   17.3520    5.9740 C   0  0  0  0  0  0  0  0  0  0  0  0
   15.0580   12.7800    2.6860 C   0  0  0  0  0  0  0  0  0  0  0  0
   13.7960   12.6320    2.6500 O   0  0  0  0  0  0  0  0  0  0  0  0
   15.9090   12.0400    2.1020 O   0  0  0  0  0  1  0  0  0  0  0  0
   16.9600   17.0900    5.8540 O   0  0  0  0  0  0  0  0  0  0  0  0
   17.6894   13.4535    3.1926 H   0  0  0  0  0  0  0  0  0  0  0  0
   13.6138   14.7100    3.9754 H   0  0  0  0  0  0  0  0  0  0  0  0
   14.4578   16.6227    5.3345 H   0  0  0  0  0  0  0  0  0  0  0  0
   19.2825   15.1603    5.3804 H   0  0  0  0  0  0  0  0  0  0  0  0
   20.1974   18.4112    6.6401 H   0  0  0  0  0  0  0  0  0  0  0  0
   20.1333   19.5287    5.2351 H   0  0  0  0  0  0  0  0  0  0  0  0
   19.1456   18.0283    5.2351 H   0  0  0  0  0  0  0  0  0  0  0  0
   22.5981   19.3063    4.2971 H   0  0  0  0  0  0  0  0  0  0  0  0
   22.5839   17.8940    3.1871 H   0  0  0  0  0  0  0  0  0  0  0  0
   21.2092   19.0503    3.1871 H   0  0  0  0  0  0  0  0  0  0  0  0
   21.8389   17.5088    6.9672 H   0  0  0  0  0  0  0  0  0  0  0  0
   22.5776   16.2971    5.8659 H   0  0  0  0  0  0  0  0  0  0  0  0
   23.1732   17.9918    5.8659 H   0  0  0  0  0  0  0  0  0  0  0  0
   17.9289   17.2403    5.9908 H   0  0  0  0  0  0  0  0  0  0  0  0
  2  1  2  0
  3  2  1  0
  4  3  2  0
  5  4  1  0
  6  5  2  0
  6  1  1  0
  8  7  2  0
  9  8  1  0
  9  1  1  0
 10  8  1  0
 11 10  1  0
 12 11  1  0
 13 11  1  0
 14 11  1  0
 15  3  1  0
 16 15  2  0
 17 15  1  0
 18  6  1  0
  2 19  1  0
  4 20  1  0
  5 21  1  0
  9 22  1  0
 12 23  1  0
 12 24  1  0
 12 25  1  0
 13 26  1  0
 13 27  1  0
 13 28  1  0
 14 29  1  0
 14 30  1  0
 14 31  1  0
 18 32  1  0
M  CHG  1  17  -1
M  END
$$$$
=
     RDKit          3D

 31 32  0  0  0  0  0  0  0  0999 V2000
   16.0720   14.2840    3.3460 C   0  0  1  0  0  0  0  0  0  0  0  0
   14.9530   14.4610    4.3760 C   0  0  0  0  0  0  0  0  0  0  0  0
   15.3750   15.3590    5.5350 C   0  0  0  0  0  0  0  0  0  0  0  0
   16.4110   16.3860    5.0960 C   0  0  0  0  0  0  0  0  0  0  0  0
   17.6440   15.7280    4.6350 N   0  0  0  0  0  0  0  0  0  0  0  0
   17.4530   14.4060    3.9710 C   0  0  0  0  0  0  0  0  0  0  0  0
   18.9060   16.3230    4.7640 C   0  0  0  0  0  0  0  0  0  0  0  0
   19.3750   17.3300    3.7650 C   0  0  0  0  0  0  0  0  0  0  0  0
   20.5050   17.9660    3.7660 N   0  0  0  0  0  0  0  0  0  0  0  0
   21.3700   17.6940    4.7960 N   0  0  0  0  0  0  0  0  0  0  0  0
   21.1250   16.7470    5.7770 C   0  0  0  0  0  0  0  0  0  0  0  0
   21.9100   16.4420    6.6730 O   0  0  0  0  0  0  0  0  0  0  0  0
   19.8140   16.0720    5.7160 C   0  0  0  0  0  0  0  0  0  0  0  0
   22.6350   18.4010    4.7570 C   0  0  0  0  0  0  0  0  0  0  0  0
   16.9580   12.3010    2.3710 O   0  0  0  0  0  1  0  0  0  0  0  0
   15.9000   12.9290    2.6490 C   0  0  0  0  0  0  0  0  0  0  0  0
   14.6990   12.6000    2.4270 O   0  0  0  0  0  0  0  0  0  0  0  0
   15.9954   15.0937    2.6054 H   0  0  0  0  0  0  0  0  0  0  0  0
   14.0811   14.9107    3.8784 H   0  0  0  0  0  0  0  0  0  0  0  0
   14.7115   13.4696    4.7868 H   0  0  0  0  0  0  0  0  0  0  0  0
   14.4895   15.8862    5.9196 H   0  0  0  0  0  0  0  0  0  0  0  0
   15.8240   14.7274    6.3157 H   0  0  0  0  0  0  0  0  0  0  0  0
   15.9954   16.9874    4.2741 H   0  0  0  0  0  0  0  0  0  0  0  0
   16.6562   17.0261    5.9564 H   0  0  0  0  0  0  0  0  0  0  0  0
   17.5768   13.6099    4.7199 H   0  0  0  0  0  0  0  0  0  0  0  0
   18.2010   14.3138    3.1698 H   0  0  0  0  0  0  0  0  0  0  0  0
   18.6862   17.5568    2.9379 H   0  0  0  0  0  0  0  0  0  0  0  0
   19.5712   15.3278    6.4888 H   0  0  0  0  0  0  0  0  0  0  0  0
   22.9793   18.5934    5.7839 H   0  0  0  0  0  0  0  0  0  0  0  0
   23.3810   17.7890    4.2288 H   0  0  0  0  0  0  0  0  0  0  0  0
   22.5046   19.3570    4.2288 H   0  0  0  0  0  0  0  0  0  0  0  0
  2  1  1  0
  3  2  1  0
  4  3  1  0
  5  4  1  0
  6  1  1  0
  6  5  1  0
  7  5  1  0
  8  7  1  0
  9  8  2  0
 10  9  1  0
 11 10  1  0
 12 11  2  0
 13  7  2  0
 13 11  1  0
 14 10  1  0
 16  1  1  0
 16 15  1  0
 17 16  2  0
  1 18  1  6
  2 19  1  0
  2 20  1  0
  3 21  1  0
  3 22  1  0
  4 23  1  0
  4 24  1  0
  6 25  1  0
  6 26  1  0
  8 27  1  0
 13 28  1  0
 14 29  1  0
 14 30  1  0
 14 31  1  0
M  CHG  1  15  -1
M  END
$$$$
=
     RDKit          3D

 37 37  0  0  0  0  0  0  0  0999 V2000
   17.1270   16.2000    4.4170 N   0  0  0  0  0  0  0  0  0  0  0  0
   15.9680   15.6860    4.9410 C   0  0  0  0  0  0  0  0  0  0  0  0
   15.8100   15.4260    6.1310 O   0  0  0  0  0  0  0  0  0  0  0  0
   18.4080   16.2970    5.1490 C   0  0  1  0  0  0  0  0  0  0  0  0
   19.2770   15.0220    4.8690 C   0  0  0  0  0  0  0  0  0  0  0  0
   19.5540   14.3000    5.8640 O   0  0  0  0  0  0  0  0  0  0  0  0
   19.5710   14.8680    3.6400 O   0  0  0  0  0  1  0  0  0  0  0  0
   19.1350   17.5910    4.7610 C   0  0  0  0  0  0  0  0  0  0  0  0
   20.4960   17.7360    5.4440 C   0  0  0  0  0  0  0  0  0  0  0  0
   23.2020   18.3380    5.4090 C   0  0  0  0  0  0  0  0  0  0  0  0
   21.7940   18.2910    4.2710 S   0  0  0  0  0  0  0  0  0  0  0  0
   14.8730   15.4850    3.9070 C   0  0  0  0  0  0  0  0  0  0  0  0
   14.4660   14.0530    3.7930 C   0  0  0  0  0  0  0  0  0  0  0  0
   13.1940   13.4830    4.0920 C   0  0  0  0  0  0  0  0  0  0  0  0
   11.9640   14.1750    4.5570 C   0  0  0  0  0  0  0  0  0  0  0  0
   13.1880   12.1570    3.8990 N   0  0  0  0  0  0  0  0  0  0  0  0
   14.4170   11.8900    3.4410 N   0  0  0  0  0  0  0  0  0  0  0  0
   15.2340   12.9810    3.3730 C   0  0  0  0  0  0  0  0  0  0  0  0
   16.6330   12.8990    2.8970 C   0  0  0  0  0  0  0  0  0  0  0  0
   17.1031   16.5422    3.4458 H   0  0  0  0  0  0  0  0  0  0  0  0
   18.2191   16.3381    6.2319 H   0  0  0  0  0  0  0  0  0  0  0  0
   19.2866   17.5954    3.6715 H   0  0  0  0  0  0  0  0  0  0  0  0
   18.5087   18.4333    5.0902 H   0  0  0  0  0  0  0  0  0  0  0  0
   20.4102   18.4742    6.2550 H   0  0  0  0  0  0  0  0  0  0  0  0
   20.7883   16.7502    5.8348 H   0  0  0  0  0  0  0  0  0  0  0  0
   22.8357   18.3258    6.4462 H   0  0  0  0  0  0  0  0  0  0  0  0
   23.8427   17.4607    5.2360 H   0  0  0  0  0  0  0  0  0  0  0  0
   23.7828   19.2560    5.2360 H   0  0  0  0  0  0  0  0  0  0  0  0
   13.9958   16.0812    4.1985 H   0  0  0  0  0  0  0  0  0  0  0  0
   15.2655   15.8050    2.9305 H   0  0  0  0  0  0  0  0  0  0  0  0
   11.9433   14.1866    5.6567 H   0  0  0  0  0  0  0  0  0  0  0  0
   11.9594   15.2081    4.1792 H   0  0  0  0  0  0  0  0  0  0  0  0
   11.0787   13.6426    4.1792 H   0  0  0  0  0  0  0  0  0  0  0  0
   14.7193   10.9450    3.1644 H   0  0  0  0  0  0  0  0  0  0  0  0
   17.3126   12.8592    3.7611 H   0  0  0  0  0  0  0  0  0  0  0  0
   16.7606   11.9918    2.2881 H   0  0  0  0  0  0  0  0  0  0  0  0
   16.8657   13.7850    2.2881 H   0  0  0  0  0  0  0  0  0  0  0  0
  2  1  1  0
  3  2  2  0
  4  1  1  0
  5  4  1  0
  6  5  2  0
  7  5  1  0
  8  4  1  0
  9  8  1  0
 11  9  1  0
 11 10  1  0
 12  2  1  0
 13 12  1  0
 14 13  1  0
 15 14  1  0
 16 14  2  0
 17 16  1  0
 18 17  1  0
 18 13  2  0
 19 18  1  0
  1 20  1  0
  4 21  1  1
  8 22  1  0
  8 23  1  0
  9 24  1  0
  9 25  1  0
 10 26  1  0
 10 27  1  0
 10 28  1  0
 12 29  1  0
 12 30  1  0
 15 31  1  0
 15 32  1  0
 15 33  1  0
 17 34  1  0
 19 35  1  0
 19 36  1  0
 19 37  1  0
M  CHG  1   7  -1
M  END
$$$$
=
     RDKit          3D

 28 30  0  0  0  0  0  0  0  0999 V2000
   18.8810   15.4960    3.7900 C   0  0  0  0  0  0  0  0  0  0  0  0
   18.9110   14.2280    3.2810 N   0  0  0  0  0  0  0  0  0  0  0  0
   17.7950   13.4970    3.1800 N   0  0  0  0  0  0  0  0  0  0  0  0
   16.6550   14.1020    3.5960 C   0  0  0  0  0  0  0  0  0  0  0  0
   16.7040   15.3720    4.1380 C   0  0  0  0  0  0  0  0  0  0  0  0
   17.8030   16.1170    4.3200 N   0  0  0  0  0  0  0  0  0  0  0  0
   15.4300   15.7450    4.4520 N   0  0  0  0  0  0  0  0  0  0  0  0
   14.5500   14.7230    4.1620 C   0  0  0  0  0  0  0  0  0  0  0  0
   15.3000   13.6740    3.6160 C   0  0  0  0  0  0  0  0  0  0  0  0
   14.6310   12.4980    3.2210 C   0  0  0  0  0  0  0  0  0  0  0  0
   13.2450   12.4100    3.3840 C   0  0  0  0  0  0  0  0  0  0  0  0
   12.5240   13.4710    3.9290 C   0  0  0  0  0  0  0  0  0  0  0  0
   13.1620   14.6500    4.3270 C   0  0  0  0  0  0  0  0  0  0  0  0
   20.4390   16.3440    3.9420 S   0  0  0  0  0  0  0  0  0  0  0  0
   20.2410   16.9820    5.6530 C   0  0  2  0  0  0  0  0  0  0  0  0
   20.2520   18.5030    5.6240 C   0  0  0  0  0  0  0  0  0  0  0  0
   22.5240   16.9770    6.3850 O   0  0  0  0  0  1  0  0  0  0  0  0
   21.4110   16.3830    6.4680 C   0  0  0  0  0  0  0  0  0  0  0  0
   21.1040   15.3760    7.1720 O   0  0  0  0  0  0  0  0  0  0  0  0
   15.1636   16.6576    4.8483 H   0  0  0  0  0  0  0  0  0  0  0  0
   15.1938   11.6575    2.7887 H   0  0  0  0  0  0  0  0  0  0  0  0
   12.7182   11.4938    3.0789 H   0  0  0  0  0  0  0  0  0  0  0  0
   11.4343   13.3794    4.0481 H   0  0  0  0  0  0  0  0  0  0  0  0
   12.5938   15.4894    4.7542 H   0  0  0  0  0  0  0  0  0  0  0  0
   19.2867   16.6917    6.1168 H   0  0  0  0  0  0  0  0  0  0  0  0
   20.2548   18.8894    6.6539 H   0  0  0  0  0  0  0  0  0  0  0  0
   21.1527   18.8532    5.0986 H   0  0  0  0  0  0  0  0  0  0  0  0
   19.3565   18.8662    5.0986 H   0  0  0  0  0  0  0  0  0  0  0  0
  2  1  2  0
  3  2  1  0
  4  3  2  0
  5  4  1  0
  6  5  2  0
  6  1  1  0
  7  5  1  0
  8  7  1  0
  9  8  2  0
  9  4  1  0
 10  9  1  0
 11 10  2  0
 12 11  1  0
 13 12  2  0
 13  8  1  0
 14  1  1  0
 15 14  1  0
 16 15  1  0
 18 15  1  0
 18 17  1  0
 19 18  2  0
  7 20  1  0
 10 21  1  0
 11 22  1  0
 12 23  1  0
 13 24  1  0
 15 25  1  1
 16 26  1  0
 16 27  1  0
 16 28  1  0
M  CHG  1  17  -1
M  END
$$$$
=
     RDKit          3D

 57 60  0  0  0  0  0  0  0  0999 V2000
   26.6290   26.1570   16.5810 N   0  0  0  0  0  0  0  0  0  0  0  0
   27.4090   25.0900   16.3080 C   0  0  0  0  0  0  0  0  0  0  0  0
   27.0550   24.0550   15.7630 O   0  0  0  0  0  0  0  0  0  0  0  0
   25.2300   26.3460   16.1710 C   0  0  1  0  0  0  0  0  0  0  0  0
   24.4810   27.3770   17.0700 C   0  0  0  0  0  0  0  0  0  0  0  0
   23.2230   27.4020   16.9600 O   0  0  0  0  0  0  0  0  0  0  0  0
   25.2380   28.0800   17.8110 O   0  0  0  0  0  1  0  0  0  0  0  0
   25.0690   26.7530   14.6920 C   0  0  0  0  0  0  0  0  0  0  0  0
   22.3530   26.0500   12.0890 C   0  0  0  0  0  0  0  0  0  0  0  0
   23.3720   26.6870   12.7990 C   0  0  0  0  0  0  0  0  0  0  0  0
   23.9250   26.0930   13.9420 C   0  0  0  0  0  0  0  0  0  0  0  0
   23.4080   24.8660   14.3830 C   0  0  0  0  0  0  0  0  0  0  0  0
   22.3810   24.2250   13.6870 C   0  0  0  0  0  0  0  0  0  0  0  0
   21.8510   24.8260   12.5450 C   0  0  0  0  0  0  0  0  0  0  0  0
   20.5120   25.9430   10.6030 C   0  0  0  0  0  0  0  0  0  0  0  0
   21.7690   26.5240   10.9420 O   0  0  0  0  0  0  0  0  0  0  0  0
   21.9860   23.0280   14.2210 O   0  0  0  0  0  0  0  0  0  0  0  0
   22.5890   22.6570   15.4540 C   0  0  0  0  0  0  0  0  0  0  0  0
   28.6780   25.3620   16.7030 O   0  0  0  0  0  0  0  0  0  0  0  0
   29.7140   24.7470   15.9190 C   0  0  0  0  0  0  0  0  0  0  0  0
   30.0190   25.5580   14.6520 C   0  0  0  0  0  0  0  0  0  0  0  0
   29.6720   27.0350   14.8160 C   0  0  0  0  0  0  0  0  0  0  0  0
   30.1990   27.9420   15.7240 C   0  0  0  0  0  0  0  0  0  0  0  0
   29.7310   29.2570   15.6850 C   0  0  0  0  0  0  0  0  0  0  0  0
   28.7600   29.6470   14.7480 C   0  0  0  0  0  0  0  0  0  0  0  0
   28.2410   28.7280   13.8290 C   0  0  0  0  0  0  0  0  0  0  0  0
   28.7040   27.4230   13.8660 C   0  0  0  0  0  0  0  0  0  0  0  0
   28.3700   26.2810   13.0420 C   0  0  0  0  0  0  0  0  0  0  0  0
   29.1240   25.1700   13.4750 C   0  0  0  0  0  0  0  0  0  0  0  0
   29.0240   23.9400   12.8410 C   0  0  0  0  0  0  0  0  0  0  0  0
   28.1430   23.8220   11.7660 C   0  0  0  0  0  0  0  0  0  0  0  0
   27.3810   24.9220   11.3380 C   0  0  0  0  0  0  0  0  0  0  0  0
   27.4930   26.1630   11.9760 C   0  0  0  0  0  0  0  0  0  0  0  0
   27.0568   26.9149   17.1319 H   0  0  0  0  0  0  0  0  0  0  0  0
   24.7728   25.3539   16.3000 H   0  0  0  0  0  0  0  0  0  0  0  0
   24.9112   27.8411   14.6573 H   0  0  0  0  0  0  0  0  0  0  0  0
   25.9875   26.4160   14.1893 H   0  0  0  0  0  0  0  0  0  0  0  0
   23.7446   27.6643   12.4584 H   0  0  0  0  0  0  0  0  0  0  0  0
   23.8181   24.4012   15.2917 H   0  0  0  0  0  0  0  0  0  0  0  0
   21.0325   24.3341   11.9990 H   0  0  0  0  0  0  0  0  0  0  0  0
   19.9649   25.6901   11.5232 H   0  0  0  0  0  0  0  0  0  0  0  0
   19.9238   26.6606   10.0121 H   0  0  0  0  0  0  0  0  0  0  0  0
   20.6775   25.0300   10.0121 H   0  0  0  0  0  0  0  0  0  0  0  0
   21.9785   23.0326   16.2884 H   0  0  0  0  0  0  0  0  0  0  0  0
   22.6569   21.5607   15.5138 H   0  0  0  0  0  0  0  0  0  0  0  0
   23.5982   23.0906   15.5138 H   0  0  0  0  0  0  0  0  0  0  0  0
   30.6281   24.6770   16.5269 H   0  0  0  0  0  0  0  0  0  0  0  0
   29.3683   23.7483   15.6139 H   0  0  0  0  0  0  0  0  0  0  0  0
   31.0876   25.3618   14.4798 H   0  0  0  0  0  0  0  0  0  0  0  0
   30.9630   27.6343   16.4531 H   0  0  0  0  0  0  0  0  0  0  0  0
   30.1275   29.9963   16.3965 H   0  0  0  0  0  0  0  0  0  0  0  0
   28.4032   30.6875   14.7364 H   0  0  0  0  0  0  0  0  0  0  0  0
   27.4825   29.0350   13.0939 H   0  0  0  0  0  0  0  0  0  0  0  0
   29.6233   23.0810   13.1770 H   0  0  0  0  0  0  0  0  0  0  0  0
   28.0438   22.8569   11.2476 H   0  0  0  0  0  0  0  0  0  0  0  0
   26.6881   24.8067   10.4915 H   0  0  0  0  0  0  0  0  0  0  0  0
   26.8983   27.0247   11.6387 H   0  0  0  0  0  0  0  0  0  0  0  0
  2  1  1  0
  3  2  2  0
  4  1  1  0
  5  4  1  0
  6  5  2  0
  7  5  1  0
  8  4  1  0
 10  9  2  0
 11 10  1  0
 11  8  1  0
 12 11  2  0
 13 12  1  0
 14 13  2  0
 14  9  1  0
 16 15  1  0
 16  9  1  0
 17 13  1  0
 18 17  1  0
 19  2  1  0
 20 19  1  0
 21 20  1  0
 22 21  1  0
 23 22  2  0
 24 23  1  0
 25 24  2  0
 26 25  1  0
 27 22  1  0
 27 26  2  0
 28 27  1  0
 29 28  2  0
 29 21  1  0
 30 29  1  0
 31 30  2  0
 32 31  1  0
 33 32  2  0
 33 28  1  0
  1 34  1  0
  4 35  1  6
  8 36  1  0
  8 37  1  0
 10 38  1  0
 12 39  1  0
 14 40  1  0
 15 41  1  0
 15 42  1  0
 15 43  1  0
 18 44  1  0
 18 45  1  0
 18 46  1  0
 20 47  1  0
 20 48  1  0
 21 49  1  0
 23 50  1  0
 24 51  1  0
 25 52  1  0
 26 53  1  0
 30 54  1  0
 31 55  1  0
 32 56  1  0
 33 57  1  0
M  CHG  1   7  -1
M  END
$$$$
=
     RDKit          3D

 37 38  0  0  0  0  0  0  0  0999 V2000
   29.0660   27.6920   16.2940 C   0  0  0  0  0  0  0  0  0  0  0  0
   28.5600   26.8900   15.3390 C   0  0  0  0  0  0  0  0  0  0  0  0
   27.2100   26.5440   15.1580 N   0  0  0  0  0  0  0  0  0  0  0  0
   26.2950   27.1080   16.0760 C   0  0  0  0  0  0  0  0  0  0  0  0
   26.6550   27.9250   17.0810 C   0  0  0  0  0  0  0  0  0  0  0  0
   28.0780   28.2820   17.2560 C   0  0  0  0  0  0  0  0  0  0  0  0
   28.4170   29.0410   18.1610 O   0  0  0  0  0  0  0  0  0  0  0  0
   26.8370   25.6940   13.9910 C   0  0  0  0  0  0  0  0  0  0  0  0
   27.3840   24.2740   14.1250 C   0  0  0  0  0  0  0  0  0  0  0  0
   28.6650   24.0280   13.3640 C   0  0  0  0  0  0  0  0  0  0  0  0
   28.5420   24.4600   11.9290 N   0  0  0  0  0  4  0  0  0  0  0  0
   28.1960   25.9180   11.7800 C   0  0  0  0  0  0  0  0  0  0  0  0
   26.9790   26.3170   12.6000 C   0  0  0  0  0  0  0  0  0  0  0  0
   27.7410   23.5500   11.0620 C   0  0  0  0  0  0  0  0  0  0  0  0
   24.7800   26.8730   16.1040 C   0  0  0  0  0  0  0  0  0  0  0  0
   24.3460   26.2980   17.1430 O   0  0  0  0  0  0  0  0  0  0  0  0
   24.1260   27.4320   15.1810 O   0  0  0  0  0  1  0  0  0  0  0  0
   30.8500   29.2450   15.8990 C   0  0  0  0  0  0  0  0  0  0  0  0
   30.3890   28.0350   16.4790 O   0  0  0  0  0  0  0  0  0  0  0  0
   29.2784   26.4603   14.6253 H   0  0  0  0  0  0  0  0  0  0  0  0
   25.8952   28.3251   17.7685 H   0  0  0  0  0  0  0  0  0  0  0  0
   25.7411   25.6198   14.0510 H   0  0  0  0  0  0  0  0  0  0  0  0
   27.5727   24.0765   15.1905 H   0  0  0  0  0  0  0  0  0  0  0  0
   26.6270   23.6024   13.6937 H   0  0  0  0  0  0  0  0  0  0  0  0
   29.4786   24.5950   13.8400 H   0  0  0  0  0  0  0  0  0  0  0  0
   28.8778   22.9490   13.3838 H   0  0  0  0  0  0  0  0  0  0  0  0
   29.4942   24.3623   11.5488 H   0  0  0  0  0  0  0  0  0  0  0  0
   29.0558   26.5196   12.1099 H   0  0  0  0  0  0  0  0  0  0  0  0
   27.9577   26.0974   10.7212 H   0  0  0  0  0  0  0  0  0  0  0  0
   26.0852   26.0411   12.0212 H   0  0  0  0  0  0  0  0  0  0  0  0
   27.1020   27.3946   12.7835 H   0  0  0  0  0  0  0  0  0  0  0  0
   27.1453   22.8733   11.6923 H   0  0  0  0  0  0  0  0  0  0  0  0
   27.0691   24.1460   10.4269 H   0  0  0  0  0  0  0  0  0  0  0  0
   28.4174   22.9591   10.4269 H   0  0  0  0  0  0  0  0  0  0  0  0
   31.1201   29.9539   16.6956 H   0  0  0  0  0  0  0  0  0  0  0  0
   31.7330   29.0399   15.2759 H   0  0  0  0  0  0  0  0  0  0  0  0
   30.0544   29.6794   15.2759 H   0  0  0  0  0  0  0  0  0  0  0  0
  2  1  2  0
  3  2  1  0
  4  3  1  0
  5  4  2  0
  6  5  1  0
  6  1  1  0
  7  6  2  0
  8  3  1  0
  9  8  1  0
 10  9  1  0
 11 10  1  0
 12 11  1  0
 13  8  1  0
 13 12  1  0
 14 11  1  0
 15  4  1  0
 16 15  2  0
 17 15  1  0
 19 18  1  0
 19  1  1  0
  2 20  1  0
  5 21  1  0
  8 22  1  0
  9 23  1  0
  9 24  1  0
 10 25  1  0
 10 26  1  0
 11 27  1  0
 12 28  1  0
 12 29  1  0
 13 30  1  0
 13 31  1  0
 14 32  1  0
 14 33  1  0
 14 34  1  0
 18 35  1  0
 18 36  1  0
 18 37  1  0
M  CHG  2  11   1  17  -1
M  END
$$$$
=
     RDKit          3D

 23 23  0  0  0  0  0  0  0  0999 V2000
   14.7110   15.4130    4.6470 C   0  0  0  0  0  0  0  0  0  0  0  0
   16.0490   15.3940    5.1760 N   0  0  0  0  0  0  0  0  0  0  0  0
   17.0820   15.0380    4.3360 C   0  0  0  0  0  0  0  0  0  0  0  0
   16.8940   14.6270    3.1950 O   0  0  0  0  0  0  0  0  0  0  0  0
   18.3220   15.1630    4.9120 N   0  0  0  0  0  0  0  0  0  0  0  0
   18.6360   15.4410    6.2940 C   0  0  0  0  0  0  0  0  0  0  0  0
   20.0810   14.9950    6.4090 C   0  0  0  0  0  0  0  0  0  0  0  0
   20.6900   15.3690    5.0590 C   0  0  0  0  0  0  0  0  0  0  0  0
   19.5130   15.3700    4.0680 C   0  0  2  0  0  0  0  0  0  0  0  0
   19.5850   16.7530    3.3410 C   0  0  0  0  0  0  0  0  0  0  0  0
   19.6270   17.7760    4.0930 O   0  0  0  0  0  0  0  0  0  0  0  0
   19.6630   16.6880    2.0780 O   0  0  0  0  0  1  0  0  0  0  0  0
   13.9888   15.4233    5.4767 H   0  0  0  0  0  0  0  0  0  0  0  0
   14.5734   16.3132    4.0300 H   0  0  0  0  0  0  0  0  0  0  0  0
   14.5479   14.5171    4.0300 H   0  0  0  0  0  0  0  0  0  0  0  0
   16.2305   15.6407    6.1594 H   0  0  0  0  0  0  0  0  0  0  0  0
   18.5341   16.5137    6.5150 H   0  0  0  0  0  0  0  0  0  0  0  0
   17.9663   14.9318    7.0027 H   0  0  0  0  0  0  0  0  0  0  0  0
   20.5899   15.5244    7.2280 H   0  0  0  0  0  0  0  0  0  0  0  0
   20.1771   13.9228    6.6351 H   0  0  0  0  0  0  0  0  0  0  0  0
   21.1530   16.3656    5.1082 H   0  0  0  0  0  0  0  0  0  0  0  0
   21.4797   14.6654    4.7566 H   0  0  0  0  0  0  0  0  0  0  0  0
   19.5097   14.5967    3.2857 H   0  0  0  0  0  0  0  0  0  0  0  0
  2  1  1  0
  3  2  1  0
  4  3  2  0
  5  3  1  0
  6  5  1  0
  7  6  1  0
  8  7  1  0
  9  8  1  0
  9  5  1  0
 10  9  1  0
 11 10  2  0
 12 10  1  0
  1 13  1  0
  1 14  1  0
  1 15  1  0
  2 16  1  0
  6 17  1  0
  6 18  1  0
  7 19  1  0
  7 20  1  0
  8 21  1  0
  8 22  1  0
  9 23  1  6
M  CHG  1  12  -1
M  END
$$$$
=
     RDKit          3D

 25 25  0  0  0  0  0  0  0  0999 V2000
   16.4750   15.3350    4.4660 C   0  0  0  0  0  0  0  0  0  0  0  0
   17.6280   15.4760    3.6910 C   0  0  0  0  0  0  0  0  0  0  0  0
   18.5730   16.4550    4.0120 C   0  0  0  0  0  0  0  0  0  0  0  0
   18.3670   17.3070    5.1010 C   0  0  0  0  0  0  0  0  0  0  0  0
   17.2210   17.1640    5.8850 C   0  0  0  0  0  0  0  0  0  0  0  0
   16.2820   16.1790    5.5640 C   0  0  0  0  0  0  0  0  0  0  0  0
   15.6760   13.4920    3.2040 C   0  0  0  0  0  0  0  0  0  0  0  0
   15.4780   14.4210    4.2640 O   0  0  0  0  0  0  0  0  0  0  0  0
   19.4100   18.3180    5.4150 C   0  0  0  0  0  0  0  0  0  0  0  0
   19.1080   19.2670    6.1410 O   0  0  0  0  0  0  0  0  0  0  0  0
   20.7730   18.1770    4.7850 C   0  0  0  0  0  0  0  0  0  0  0  0
   21.7820   17.5430    5.6960 C   0  0  0  0  0  0  0  0  0  0  0  0
   22.7780   18.1330    6.1180 O   0  0  0  0  0  0  0  0  0  0  0  0
   21.6200   16.0540    6.0050 C   0  0  0  0  0  0  0  0  0  0  0  0
   21.3080   15.7940    7.2140 O   0  0  0  0  0  0  0  0  0  0  0  0
   21.7830   15.2170    5.0650 O   0  0  0  0  0  1  0  0  0  0  0  0
   17.7930   14.8158    2.8267 H   0  0  0  0  0  0  0  0  0  0  0  0
   19.4842   16.5555    3.4040 H   0  0  0  0  0  0  0  0  0  0  0  0
   17.0575   17.8227    6.7507 H   0  0  0  0  0  0  0  0  0  0  0  0
   15.3798   16.0666    6.1832 H   0  0  0  0  0  0  0  0  0  0  0  0
   15.8880   12.4973    3.6230 H   0  0  0  0  0  0  0  0  0  0  0  0
   14.7681   13.4432    2.5849 H   0  0  0  0  0  0  0  0  0  0  0  0
   16.5249   13.8176    2.5849 H   0  0  0  0  0  0  0  0  0  0  0  0
   20.6783   17.5560    3.8820 H   0  0  0  0  0  0  0  0  0  0  0  0
   21.1327   19.1904    4.5535 H   0  0  0  0  0  0  0  0  0  0  0  0
  2  1  2  0
  3  2  1  0
  4  3  2  0
  5  4  1  0
  6  1  1  0
  6  5  2  0
  8  7  1  0
  8  1  1  0
  9  4  1  0
 10  9  2  0
 11  9  1  0
 12 11  1  0
 13 12  2  0
 14 12  1  0
 15 14  2  0
 16 14  1  0
  2 17  1  0
  3 18  1  0
  5 19  1  0
  6 20  1  0
  7 21  1  0
  7 22  1  0
  7 23  1  0
 11 24  1  0
 11 25  1  0
M  CHG  1  16  -1
M  END
$$$$
=
     RDKit          3D

 26 26  0  0  0  0  0  0  0  0999 V2000
   17.2350   14.7860    4.1530 C   0  0  0  0  0  0  0  0  0  0  0  0
   16.4840   15.7790    4.8180 C   0  0  0  0  0  0  0  0  0  0  0  0
   17.1570   16.9330    5.5110 C   0  0  0  0  0  0  0  0  0  0  0  0
   15.0870   15.6760    4.8580 C   0  0  0  0  0  0  0  0  0  0  0  0
   14.4070   14.6280    4.2200 C   0  0  0  0  0  0  0  0  0  0  0  0
   15.1430   13.6520    3.5100 C   0  0  0  0  0  0  0  0  0  0  0  0
   16.5630   13.7030    3.5230 C   0  0  0  0  0  0  0  0  0  0  0  0
   17.3820   12.6340    2.8330 C   0  0  0  0  0  0  0  0  0  0  0  0
   14.4330   12.5360    2.7860 C   0  0  0  0  0  0  0  0  0  0  0  0
   12.9060   14.5990    4.2980 C   0  0  0  0  0  0  0  0  0  0  0  0
   19.3890   14.3670    5.0720 O   0  0  0  0  0  1  0  0  0  0  0  0
   18.7480   14.8900    4.1070 C   0  0  0  0  0  0  0  0  0  0  0  0
   19.2540   15.4900    3.1080 O   0  0  0  0  0  0  0  0  0  0  0  0
   17.0804   16.8016    6.6004 H   0  0  0  0  0  0  0  0  0  0  0  0
   18.2171   16.9680    5.2195 H   0  0  0  0  0  0  0  0  0  0  0  0
   16.6654   17.8729    5.2195 H   0  0  0  0  0  0  0  0  0  0  0  0
   14.5089   16.4363    5.4036 H   0  0  0  0  0  0  0  0  0  0  0  0
   17.8681   11.9996    3.5888 H   0  0  0  0  0  0  0  0  0  0  0  0
   16.7237   12.0164    2.2043 H   0  0  0  0  0  0  0  0  0  0  0  0
   18.1496   13.1089    2.2043 H   0  0  0  0  0  0  0  0  0  0  0  0
   13.9931   11.8445    3.5197 H   0  0  0  0  0  0  0  0  0  0  0  0
   13.6362   12.9568    2.1551 H   0  0  0  0  0  0  0  0  0  0  0  0
   15.1518   11.9926    2.1551 H   0  0  0  0  0  0  0  0  0  0  0  0
   12.5937   14.5930    5.3527 H   0  0  0  0  0  0  0  0  0  0  0  0
   12.4956   15.4894    3.7992 H   0  0  0  0  0  0  0  0  0  0  0  0
   12.5303   13.6934    3.7992 H   0  0  0  0  0  0  0  0  0  0  0  0
  2  1  2  0
  3  2  1  0
  4  2  1  0
  5  4  2  0
  6  5  1  0
  7  6  2  0
  7  1  1  0
  8  7  1  0
  9  6  1  0
 10  5  1  0
 12 11  1  0
 12  1  1  0
 13 12  2  0
  3 14  1  0
  3 15  1  0
  3 16  1  0
  4 17  1  0
  8 18  1  0
  8 19  1  0
  8 20  1  0
  9 21  1  0
  9 22  1  0
  9 23  1  0
 10 24  1  0
 10 25  1  0
 10 26  1  0
M  CHG  1  11  -1
M  END
$$$$
=
     RDKit          3D

 20 21  0  0  0  0  0  0  0  0999 V2000
   13.0970   14.0060    3.7800 C   0  0  0  0  0  0  0  0  0  0  0  0
   13.9670   13.0600    3.2210 C   0  0  0  0  0  0  0  0  0  0  0  0
   15.3500   13.2740    3.1990 C   0  0  0  0  0  0  0  0  0  0  0  0
   15.9050   14.4440    3.7370 C   0  0  0  0  0  0  0  0  0  0  0  0
   15.0360   15.3930    4.2960 C   0  0  0  0  0  0  0  0  0  0  0  0
   13.6540   15.1760    4.3170 C   0  0  0  0  0  0  0  0  0  0  0  0
   17.3420   14.6800    3.7190 C   0  0  0  0  0  0  0  0  0  0  0  0
   18.4710   13.8940    3.6010 C   0  0  0  0  0  0  0  0  0  0  0  0
   19.6070   14.6670    3.6500 N   0  0  0  0  0  0  0  0  0  0  0  0
   19.1310   15.8820    3.7940 C   0  0  0  0  0  0  0  0  0  0  0  0
   17.7750   15.9760    3.8450 O   0  0  0  0  0  0  0  0  0  0  0  0
   11.1610   12.7510    3.1880 O   0  0  0  0  0  1  0  0  0  0  0  0
   11.5980   13.7740    3.8040 C   0  0  0  0  0  0  0  0  0  0  0  0
   10.8920   14.6200    4.4380 O   0  0  0  0  0  0  0  0  0  0  0  0
   13.5561   12.1340    2.7925 H   0  0  0  0  0  0  0  0  0  0  0  0
   16.0099   12.5147    2.7540 H   0  0  0  0  0  0  0  0  0  0  0  0
   15.4465   16.3197    4.7233 H   0  0  0  0  0  0  0  0  0  0  0  0
   12.9937   15.9351    4.7617 H   0  0  0  0  0  0  0  0  0  0  0  0
   18.4628   12.8003    3.4839 H   0  0  0  0  0  0  0  0  0  0  0  0
   19.7842   16.7639    3.8683 H   0  0  0  0  0  0  0  0  0  0  0  0
  2  1  2  0
  3  2  1  0
  4  3  2  0
  5  4  1  0
  6  5  2  0
  6  1  1  0
  7  4  1  0
  8  7  2  0
  9  8  1  0
 10  9  2  0
 11 10  1  0
 11  7  1  0
 13 12  1  0
 13  1  1  0
 14 13  2  0
  2 15  1  0
  3 16  1  0
  5 17  1  0
  6 18  1  0
  8 19  1  0
 10 20  1  0
M  CHG  1  12  -1
M  END
$$$$
=
     RDKit          3D

 20 21  0  0  0  0  0  0  0  0999 V2000
   12.6950   13.8880    4.1630 C   0  0  0  0  0  0  0  0  0  0  0  0
   13.6170   14.7560    4.6300 C   0  0  0  0  0  0  0  0  0  0  0  0
   14.9810   14.6070    4.2440 C   0  0  0  0  0  0  0  0  0  0  0  0
   16.1730   15.2570    4.4910 C   0  0  0  0  0  0  0  0  0  0  0  0
   16.4200   16.4450    5.3350 C   0  0  0  0  0  0  0  0  0  0  0  0
   17.2080   14.6380    3.8170 N   0  0  0  0  0  0  0  0  0  0  0  0
   16.6480   13.6340    3.1760 C   0  0  0  0  0  0  0  0  0  0  0  0
   15.2950   13.5610    3.3940 N   0  0  0  0  0  0  0  0  0  0  0  0
   14.3570   12.6580    2.9030 C   0  0  0  0  0  0  0  0  0  0  0  0
   13.0710   12.7960    3.2660 C   0  0  0  0  0  0  0  0  0  0  0  0
   10.4310   14.5000    3.6790 O   0  0  0  0  0  1  0  0  0  0  0  0
   11.1970   14.0220    4.5660 C   0  0  0  0  0  0  0  0  0  0  0  0
   10.9100   13.6390    5.7370 O   0  0  0  0  0  0  0  0  0  0  0  0
   13.3180   15.5726    5.3037 H   0  0  0  0  0  0  0  0  0  0  0  0
   16.3607   16.1599    6.3958 H   0  0  0  0  0  0  0  0  0  0  0  0
   17.4209   16.8468    5.1187 H   0  0  0  0  0  0  0  0  0  0  0  0
   15.6622   17.2124    5.1187 H   0  0  0  0  0  0  0  0  0  0  0  0
   17.2028   12.9315    2.5367 H   0  0  0  0  0  0  0  0  0  0  0  0
   14.6635   11.8447    2.2288 H   0  0  0  0  0  0  0  0  0  0  0  0
   12.3094   12.0955    2.8927 H   0  0  0  0  0  0  0  0  0  0  0  0
  2  1  2  0
  3  2  1  0
  4  3  2  0
  5  4  1  0
  6  4  1  0
  7  6  2  0
  8  3  1  0
  8  7  1  0
  9  8  1  0
 10  9  2  0
 10  1  1  0
 12 11  1  0
 12  1  1  0
 13 12  2  0
  2 14  1  0
  5 15  1  0
  5 16  1  0
  5 17  1  0
  7 18  1  0
  9 19  1  0
 10 20  1  0
M  CHG  1  11  -1
M  END
$$$$
=
     RDKit          3D

 23 23  0  0  0  0  0  0  0  0999 V2000
   16.6570   14.7000    3.8520 C   0  0  0  0  0  0  0  0  0  0  0  0
   15.7890   15.4840    4.6120 C   0  0  0  0  0  0  0  0  0  0  0  0
   14.4400   15.1310    4.6850 C   0  0  0  0  0  0  0  0  0  0  0  0
   13.9480   14.0070    3.9980 C   0  0  0  0  0  0  0  0  0  0  0  0
   14.8400   13.2580    3.2100 C   0  0  0  0  0  0  0  0  0  0  0  0
   16.1900   13.6010    3.1290 C   0  0  0  0  0  0  0  0  0  0  0  0
   18.3980   15.0770    3.8440 S   0  0  0  0  0  6  0  0  0  0  0  0
   19.0860   13.9030    3.3410 O   0  0  0  0  0  0  0  0  0  0  0  0
   18.5510   16.3690    3.2020 O   0  0  0  0  0  0  0  0  0  0  0  0
   18.7200   15.2450    5.5750 C   0  0  0  0  0  0  0  0  0  0  0  0
   21.0240   15.4800    5.1080 F   0  0  0  0  0  0  0  0  0  0  0  0
   20.1280   14.8510    5.8980 C   0  0  0  0  0  0  0  0  0  0  0  0
   20.4480   15.1220    7.1820 F   0  0  0  0  0  0  0  0  0  0  0  0
   12.4890   13.6070    4.1120 C   0  0  0  0  0  0  0  0  0  0  0  0
   11.8910   13.2950    3.0340 O   0  0  0  0  0  0  0  0  0  0  0  0
   11.9810   13.6010    5.2760 O   0  0  0  0  0  1  0  0  0  0  0  0
   16.1626   16.3694    5.1472 H   0  0  0  0  0  0  0  0  0  0  0  0
   13.7521   15.7411    5.2888 H   0  0  0  0  0  0  0  0  0  0  0  0
   14.4676   12.3883    2.6488 H   0  0  0  0  0  0  0  0  0  0  0  0
   16.8776   13.0129    2.5034 H   0  0  0  0  0  0  0  0  0  0  0  0
   18.5626   16.2928    5.8704 H   0  0  0  0  0  0  0  0  0  0  0  0
   18.0351   14.5832    6.1254 H   0  0  0  0  0  0  0  0  0  0  0  0
   20.1744   13.7660    5.7233 H   0  0  0  0  0  0  0  0  0  0  0  0
  2  1  2  0
  3  2  1  0
  4  3  2  0
  5  4  1  0
  6  5  2  0
  6  1  1  0
  7  1  1  0
  8  7  2  0
  9  7  2  0
 10  7  1  0
 12 11  1  0
 12 10  1  0
 13 12  1  0
 14  4  1  0
 15 14  2  0
 16 14  1  0
  2 17  1  0
  3 18  1  0
  5 19  1  0
  6 20  1  0
 10 21  1  0
 10 22  1  0
 12 23  1  0
M  CHG  1  16  -1
M  END
$$$$
=
     RDKit          3D

 39 38  0  0  0  0  0  0  0  0999 V2000
   17.8840   16.1660    4.1900 O   0  0  0  0  0  0  0  0  0  0  0  0
   19.1380   16.1980    3.6650 C   0  0  0  0  0  0  0  0  0  0  0  0
   19.8910   15.2370    3.5600 O   0  0  0  0  0  0  0  0  0  0  0  0
   19.4900   17.5960    3.2310 C   0  0  0  0  0  0  0  0  0  0  0  0
   20.8840   17.9590    3.7100 C   0  0  0  0  0  0  0  0  0  0  0  0
   20.9130   18.1130    5.2100 C   0  0  0  0  0  0  0  0  0  0  0  0
   20.0470   18.7370    5.8260 O   0  0  0  0  0  0  0  0  0  0  0  0
   22.0750   17.4940    5.9960 C   0  0  0  0  0  0  0  0  0  0  0  0
   21.7960   16.4080    6.6010 O   0  0  0  0  0  0  0  0  0  0  0  0
   23.1950   18.0930    5.9870 O   0  0  0  0  0  1  0  0  0  0  0  0
   17.7980   15.9650    5.6080 C   0  0  0  0  0  0  0  0  0  0  0  0
   16.3380   15.8020    6.0190 C   0  0  0  0  0  0  0  0  0  0  0  0
   15.3820   15.6300    4.8380 C   0  0  0  0  0  0  0  0  0  0  0  0
   14.2310   14.6380    5.0450 C   0  0  0  0  0  0  0  0  0  0  0  0
   13.8420   13.8840    3.7730 C   0  0  0  0  0  0  0  0  0  0  0  0
   14.6260   12.5850    3.5480 C   0  0  0  0  0  0  0  0  0  0  0  0
   17.1050   12.7360    2.9770 C   0  0  0  0  0  0  0  0  0  0  0  0
   15.6830   12.6550    2.4420 C   0  0  0  0  0  0  0  0  0  0  0  0
   19.4564   17.6548    2.1331 H   0  0  0  0  0  0  0  0  0  0  0  0
   18.7662   18.3000    3.6674 H   0  0  0  0  0  0  0  0  0  0  0  0
   21.5847   17.1637    3.4157 H   0  0  0  0  0  0  0  0  0  0  0  0
   21.1756   18.9158    3.2522 H   0  0  0  0  0  0  0  0  0  0  0  0
   18.3582   15.0592    5.8831 H   0  0  0  0  0  0  0  0  0  0  0  0
   18.2258   16.8366    6.1251 H   0  0  0  0  0  0  0  0  0  0  0  0
   16.2559   14.9149    6.6642 H   0  0  0  0  0  0  0  0  0  0  0  0
   16.0450   16.7269    6.5374 H   0  0  0  0  0  0  0  0  0  0  0  0
   14.9428   16.6134    4.6143 H   0  0  0  0  0  0  0  0  0  0  0  0
   15.9903   15.2130    4.0218 H   0  0  0  0  0  0  0  0  0  0  0  0
   14.5359   13.9042    5.8057 H   0  0  0  0  0  0  0  0  0  0  0  0
   13.3524   15.2212    5.3579 H   0  0  0  0  0  0  0  0  0  0  0  0
   12.7721   13.6354    3.8328 H   0  0  0  0  0  0  0  0  0  0  0  0
   14.0787   14.5468    2.9276 H   0  0  0  0  0  0  0  0  0  0  0  0
   15.1323   12.3238    4.4889 H   0  0  0  0  0  0  0  0  0  0  0  0
   13.8913   11.8322    3.2263 H   0  0  0  0  0  0  0  0  0  0  0  0
   17.0836   12.7348    4.0768 H   0  0  0  0  0  0  0  0  0  0  0  0
   17.6808   11.8692    2.6205 H   0  0  0  0  0  0  0  0  0  0  0  0
   17.5787   13.6626    2.6205 H   0  0  0  0  0  0  0  0  0  0  0  0
   15.5953   11.7541    1.8169 H   0  0  0  0  0  0  0  0  0  0  0  0
   15.4962   13.5751    1.8688 H   0  0  0  0  0  0  0  0  0  0  0  0
  2  1  1  0
  3  2  2  0
  4  2  1  0
  5  4  1  0
  6  5  1  0
  7  6  2  0
  8  6  1  0
  9  8  2  0
 10  8  1  0
 11  1  1  0
 12 11  1  0
 13 12  1  0
 14 13  1  0
 15 14  1  0
 16 15  1  0
 18 16  1  0
 18 17  1  0
  4 19  1  0
  4 20  1  0
  5 21  1  0
  5 22  1  0
 11 23  1  0
 11 24  1  0
 12 25  1  0
 12 26  1  0
 13 27  1  0
 13 28  1  0
 14 29  1  0
 14 30  1  0
 15 31  1  0
 15 32  1  0
 16 33  1  0
 16 34  1  0
 17 35  1  0
 17 36  1  0
 17 37  1  0
 18 38  1  0
 18 39  1  0
M  CHG  1  10  -1
M  END
$$$$
=
     RDKit          3D

 31 32  0  0  0  0  0  0  0  0999 V2000
   15.8640   16.5600    5.1070 O   0  0  0  0  0  0  0  0  0  0  0  0
   16.2660   15.7090    4.3210 C   0  0  0  0  0  0  0  0  0  0  0  0
   17.5140   15.7010    3.7590 N   0  0  0  0  0  0  0  0  0  0  0  0
   15.3540   14.6050    3.8990 C   0  0  0  0  0  0  0  0  0  0  0  0
   15.8040   13.5020    3.1610 C   0  0  0  0  0  0  0  0  0  0  0  0
   14.9110   12.4900    2.7950 C   0  0  0  0  0  0  0  0  0  0  0  0
   13.5710   12.5700    3.1710 C   0  0  0  0  0  0  0  0  0  0  0  0
   13.1190   13.6570    3.9170 C   0  0  0  0  0  0  0  0  0  0  0  0
   14.0070   14.6690    4.2840 C   0  0  0  0  0  0  0  0  0  0  0  0
   18.5230   16.7590    3.9420 C   0  0  1  0  0  0  0  0  0  0  0  0
   19.5290   16.3180    4.9960 C   0  0  0  0  0  0  0  0  0  0  0  0
   20.6880   17.0610    5.2690 C   0  0  0  0  0  0  0  0  0  0  0  0
   21.6130   16.6160    6.2160 C   0  0  0  0  0  0  0  0  0  0  0  0
   21.4000   15.4160    6.8930 C   0  0  0  0  0  0  0  0  0  0  0  0
   20.2650   14.6570    6.6170 C   0  0  0  0  0  0  0  0  0  0  0  0
   19.3390   15.1020    5.6710 C   0  0  0  0  0  0  0  0  0  0  0  0
   19.2260   17.1050    2.5780 C   0  0  0  0  0  0  0  0  0  0  0  0
   19.2700   18.3240    2.2470 O   0  0  0  0  0  0  0  0  0  0  0  0
   19.6440   16.0820    1.9400 O   0  0  0  0  0  1  0  0  0  0  0  0
   17.7659   14.8977    3.1656 H   0  0  0  0  0  0  0  0  0  0  0  0
   16.8622   13.4321    2.8689 H   0  0  0  0  0  0  0  0  0  0  0  0
   15.2665   11.6294    2.2094 H   0  0  0  0  0  0  0  0  0  0  0  0
   12.8698   11.7745    2.8786 H   0  0  0  0  0  0  0  0  0  0  0  0
   12.0623   13.7172    4.2165 H   0  0  0  0  0  0  0  0  0  0  0  0
   13.6483   15.5220    4.8788 H   0  0  0  0  0  0  0  0  0  0  0  0
   18.0295   17.6782    4.2908 H   0  0  0  0  0  0  0  0  0  0  0  0
   20.8697   18.0034    4.7316 H   0  0  0  0  0  0  0  0  0  0  0  0
   22.5117   17.2137    6.4282 H   0  0  0  0  0  0  0  0  0  0  0  0
   22.1262   15.0695    7.6430 H   0  0  0  0  0  0  0  0  0  0  0  0
   20.0980   13.7064    7.1446 H   0  0  0  0  0  0  0  0  0  0  0  0
   18.4500   14.4922    5.4522 H   0  0  0  0  0  0  0  0  0  0  0  0
  2  1  2  0
  3  2  1  0
  4  2  1  0
  5  4  2  0
  6  5  1  0
  7  6  2  0
  8  7  1  0
  9  8  2  0
  9  4  1  0
 10  3  1  0
 11 10  1  0
 12 11  2  0
 13 12  1  0
 14 13  2  0
 15 14  1  0
 16 11  1  0
 16 15  2  0
 17 10  1  0
 18 17  2  0
 19 17  1  0
  3 20  1  0
  5 21  1  0
  6 22  1  0
  7 23  1  0
  8 24  1  0
  9 25  1  0
 10 26  1  1
 12 27  1  0
 13 28  1  0
 14 29  1  0
 15 30  1  0
 16 31  1  0
M  CHG  1  19  -1
M  END
$$$$
=
     RDKit          3D

 26 27  0  0  0  0  0  0  0  0999 V2000
   18.3230   16.0040    4.2260 C   0  0  0  0  0  0  0  0  0  0  0  0
   18.8090   16.7770    3.1690 C   0  0  0  0  0  0  0  0  0  0  0  0
   20.0330   17.3540    3.1170 N   0  0  0  0  0  0  0  0  0  0  0  0
   20.8390   17.1420    4.1900 C   0  0  0  0  0  0  0  0  0  0  0  0
   20.4820   16.3910    5.3010 C   0  0  0  0  0  0  0  0  0  0  0  0
   19.1990   15.8220    5.3040 C   0  0  0  0  0  0  0  0  0  0  0  0
   15.1800   12.4420    2.6030 C   0  0  0  0  0  0  0  0  0  0  0  0
   15.4230   13.6880    3.4000 C   0  0  0  0  0  0  0  0  0  0  0  0
   14.3990   14.2600    4.1590 C   0  0  0  0  0  0  0  0  0  0  0  0
   14.6460   15.3970    4.9260 C   0  0  0  0  0  0  0  0  0  0  0  0
   15.9220   15.9660    4.9470 C   0  0  0  0  0  0  0  0  0  0  0  0
   16.9760   15.4090    4.2040 C   0  0  0  0  0  0  0  0  0  0  0  0
   16.7050   14.2610    3.4400 C   0  0  0  0  0  0  0  0  0  0  0  0
   21.4410   16.2020    6.4420 C   0  0  0  0  0  0  0  0  0  0  0  0
   22.5000   16.9030    6.4290 O   0  0  0  0  0  0  0  0  0  0  0  0
   21.1180   15.3530    7.3310 O   0  0  0  0  0  1  0  0  0  0  0  0
   18.1423   16.9297    2.3075 H   0  0  0  0  0  0  0  0  0  0  0  0
   21.8410   17.5957    4.1772 H   0  0  0  0  0  0  0  0  0  0  0  0
   18.8756   15.2227    6.1679 H   0  0  0  0  0  0  0  0  0  0  0  0
   15.0150   11.5960    3.2864 H   0  0  0  0  0  0  0  0  0  0  0  0
   14.2918   12.5797    1.9689 H   0  0  0  0  0  0  0  0  0  0  0  0
   16.0549   12.2359    1.9689 H   0  0  0  0  0  0  0  0  0  0  0  0
   13.3946   13.8115    4.1512 H   0  0  0  0  0  0  0  0  0  0  0  0
   13.8345   15.8476    5.5163 H   0  0  0  0  0  0  0  0  0  0  0  0
   16.1041   16.8644    5.5550 H   0  0  0  0  0  0  0  0  0  0  0  0
   17.5170   13.7996    2.8588 H   0  0  0  0  0  0  0  0  0  0  0  0
  2  1  2  0
  3  2  1  0
  4  3  2  0
  5  4  1  0
  6  1  1  0
  6  5  2  0
  8  7  1  0
  9  8  2  0
 10  9  1  0
 11 10  2  0
 12 11  1  0
 12  1  1  0
 13  8  1  0
 13 12  2  0
 14  5  1  0
 15 14  2  0
 16 14  1  0
  2 17  1  0
  4 18  1  0
  6 19  1  0
  7 20  1  0
  7 21  1  0
  7 22  1  0
  9 23  1  0
 10 24  1  0
 11 25  1  0
 13 26  1  0
M  CHG  1  16  -1
M  END
$$$$
=
     RDKit          3D

 32 32  0  0  0  0  0  0  0  0999 V2000
   18.8100   16.2070    4.0110 C   0  0  0  0  0  0  0  0  0  0  0  0
   19.5960   15.7620    3.1820 O   0  0  0  0  0  0  0  0  0  0  0  0
   17.5710   15.6660    4.2940 N   0  0  0  0  0  0  0  0  0  0  0  0
   16.7010   16.2180    5.3260 C   0  0  0  0  0  0  0  0  0  0  0  0
   15.4480   15.3820    5.5690 C   0  0  0  0  0  0  0  0  0  0  0  0
   14.7170   15.0860    4.2500 C   0  0  0  0  0  0  0  0  0  0  0  0
   15.6750   14.6080    3.1380 C   0  0  0  0  0  0  0  0  0  0  0  0
   17.1170   14.4570    3.6130 C   0  0  0  0  0  0  0  0  0  0  0  0
   19.0670   17.3150    4.7620 O   0  0  0  0  0  0  0  0  0  0  0  0
   19.9720   18.2290    4.1450 C   0  0  0  0  0  0  0  0  0  0  0  0
   22.4150   18.5410    4.6650 C   0  0  0  0  0  0  0  0  0  0  0  0
   21.1460   18.3860    5.0650 C   0  0  0  0  0  0  0  0  0  0  0  0
   13.5130   14.1550    4.4510 C   0  0  0  0  0  0  0  0  0  0  0  0
   13.3980   12.8610    3.6330 C   0  0  0  0  0  0  0  0  0  0  0  0
   14.1590   11.9140    3.9680 O   0  0  0  0  0  0  0  0  0  0  0  0
   12.5420   12.9130    2.7040 O   0  0  0  0  0  1  0  0  0  0  0  0
   17.2688   16.2777    6.2662 H   0  0  0  0  0  0  0  0  0  0  0  0
   16.3702   17.2078    4.9783 H   0  0  0  0  0  0  0  0  0  0  0  0
   15.7363   14.4313    6.0413 H   0  0  0  0  0  0  0  0  0  0  0  0
   14.7708   15.9492    6.2245 H   0  0  0  0  0  0  0  0  0  0  0  0
   14.3047   16.0420    3.8948 H   0  0  0  0  0  0  0  0  0  0  0  0
   15.3242   13.6329    2.7692 H   0  0  0  0  0  0  0  0  0  0  0  0
   15.6687   15.3740    2.3486 H   0  0  0  0  0  0  0  0  0  0  0  0
   17.1799   13.6069    4.3083 H   0  0  0  0  0  0  0  0  0  0  0  0
   17.7593   14.2853    2.7367 H   0  0  0  0  0  0  0  0  0  0  0  0
   20.3049   17.8316    3.1748 H   0  0  0  0  0  0  0  0  0  0  0  0
   19.4844   19.1990    3.9678 H   0  0  0  0  0  0  0  0  0  0  0  0
   23.2171   18.6495    5.4099 H   0  0  0  0  0  0  0  0  0  0  0  0
   22.6550   18.5598    3.5917 H   0  0  0  0  0  0  0  0  0  0  0  0
   20.9507   18.3729    6.1474 H   0  0  0  0  0  0  0  0  0  0  0  0
   13.5120   13.8616    5.5111 H   0  0  0  0  0  0  0  0  0  0  0  0
   12.6653   14.7571    4.0920 H   0  0  0  0  0  0  0  0  0  0  0  0
  2  1  2  0
  3  1  1  0
  4  3  1  0
  5  4  1  0
  6  5  1  0
  7  6  1  0
  8  7  1  0
  8  3  1  0
  9  1  1  0
 10  9  1  0
 12 10  1  0
 12 11  2  3
 13  6  1  0
 14 13  1  0
 15 14  2  0
 16 14  1  0
  4 17  1  0
  4 18  1  0
  5 19  1  0
  5 20  1  0
  6 21  1  0
  7 22  1  0
  7 23  1  0
  8 24  1  0
  8 25  1  0
 10 26  1  0
 10 27  1  0
 11 28  1  0
 11 29  1  0
 12 30  1  0
 13 31  1  0
 13 32  1  0
M  CHG  1  16  -1
M  END
$$$$
=
     RDKit          3D

 21 22  0  0  0  0  0  0  0  0999 V2000
   20.6810   16.0780    5.1320 C   0  0  0  0  0  0  0  0  0  0  0  0
   19.5690   15.3600    4.9600 C   0  0  0  0  0  0  0  0  0  0  0  0
   18.7630   15.4480    3.7120 C   0  0  0  0  0  0  0  0  0  0  0  0
   18.8210   16.3970    2.8350 N   0  0  0  0  0  0  0  0  0  0  0  0
   19.8790   17.5760    3.1280 S   0  0  0  0  0  6  0  0  0  0  0  0
   19.2300   18.5820    3.9450 O   0  0  0  0  0  0  0  0  0  0  0  0
   20.4710   17.9680    1.8640 O   0  0  0  0  0  0  0  0  0  0  0  0
   21.1070   16.9030    4.0300 N   0  0  0  0  0  0  0  0  0  0  0  0
   17.7940   14.3950    3.4680 C   0  0  0  0  0  0  0  0  0  0  0  0
   16.4090   14.4060    3.4980 C   0  0  0  0  0  0  0  0  0  0  0  0
   15.9760   13.0970    3.1760 C   0  0  0  0  0  0  0  0  0  0  0  0
   17.1170   12.3630    2.9670 C   0  0  0  0  0  0  0  0  0  0  0  0
   18.2190   13.1350    3.1390 O   0  0  0  0  0  0  0  0  0  0  0  0
   22.5050   16.8270    6.4990 O   0  0  0  0  0  1  0  0  0  0  0  0
   21.5020   16.0650    6.4560 C   0  0  0  0  0  0  0  0  0  0  0  0
   21.0300   15.2630    7.3190 O   0  0  0  0  0  0  0  0  0  0  0  0
   19.2392   14.6845    5.7630 H   0  0  0  0  0  0  0  0  0  0  0  0
   22.1012   17.0652    3.8151 H   0  0  0  0  0  0  0  0  0  0  0  0
   15.7669   15.2689    3.7285 H   0  0  0  0  0  0  0  0  0  0  0  0
   14.9375   12.7410    3.1073 H   0  0  0  0  0  0  0  0  0  0  0  0
   17.1352   11.2967    2.6974 H   0  0  0  0  0  0  0  0  0  0  0  0
  2  1  2  0
  3  2  1  0
  4  3  2  0
  5  4  1  0
  6  5  2  0
  7  5  2  0
  8  1  1  0
  8  5  1  0
  9  3  1  0
 10  9  2  0
 11 10  1  0
 12 11  2  0
 13 12  1  0
 13  9  1  0
 15  1  1  0
 15 14  1  0
 16 15  2  0
  2 17  1  0
  8 18  1  0
 10 19  1  0
 11 20  1  0
 12 21  1  0
M  CHG  1  14  -1
M  END
$$$$
=
     RDKit          3D

 35 37  0  0  0  0  0  0  0  0999 V2000
   26.1970   26.1880   15.2890 C   0  0  1  0  0  0  0  0  0  0  0  0
   26.8100   27.5820   15.1360 C   0  0  2  0  0  0  0  0  0  0  0  0
   26.5660   26.7160   13.9220 C   0  0  1  0  0  0  0  0  0  0  0  0
   28.1710   28.0410   15.6090 C   0  0  0  0  0  0  0  0  0  0  0  0
   28.8670   29.0510   14.9170 C   0  0  0  0  0  0  0  0  0  0  0  0
   30.1000   29.5410   15.3610 C   0  0  0  0  0  0  0  0  0  0  0  0
   30.6620   29.0450   16.5310 C   0  0  0  0  0  0  0  0  0  0  0  0
   29.9850   28.0700   17.2550 C   0  0  0  0  0  0  0  0  0  0  0  0
   28.7520   27.5890   16.8030 C   0  0  0  0  0  0  0  0  0  0  0  0
   26.8600   24.9980   15.8080 C   0  0  0  0  0  0  0  0  0  0  0  0
   26.7170   23.9330   15.1310 O   0  0  0  0  0  0  0  0  0  0  0  0
   27.4320   25.0610   16.9390 O   0  0  0  0  0  1  0  0  0  0  0  0
   28.0170   26.1020   13.0500 S   0  0  0  0  0  6  0  0  0  0  0  0
   29.0860   25.7110   13.9410 O   0  0  0  0  0  0  0  0  0  0  0  0
   28.2750   27.1280   12.0440 O   0  0  0  0  0  0  0  0  0  0  0  0
   27.4780   24.6900   12.1120 C   0  0  0  0  0  0  0  0  0  0  0  0
   26.1250   24.5000   11.8330 C   0  0  0  0  0  0  0  0  0  0  0  0
   25.7150   23.3610   11.1420 C   0  0  0  0  0  0  0  0  0  0  0  0
   26.6520   22.4030   10.7510 C   0  0  0  0  0  0  0  0  0  0  0  0
   28.0030   22.5820   11.0500 C   0  0  0  0  0  0  0  0  0  0  0  0
   28.4210   23.7230   11.7370 C   0  0  0  0  0  0  0  0  0  0  0  0
   23.6420   26.0580   15.7640 N   0  0  0  0  0  0  0  0  0  0  0  0
   24.7850   26.1750   15.5850 C   0  0  0  0  0  0  0  0  0  0  0  0
   26.5214   28.5897   15.4695 H   0  0  0  0  0  0  0  0  0  0  0  0
   26.0083   26.8064   12.9782 H   0  0  0  0  0  0  0  0  0  0  0  0
   28.4275   29.4677   13.9987 H   0  0  0  0  0  0  0  0  0  0  0  0
   30.6238   30.3178   14.7846 H   0  0  0  0  0  0  0  0  0  0  0  0
   31.6346   29.4207   16.8816 H   0  0  0  0  0  0  0  0  0  0  0  0
   30.4201   27.6761   18.1853 H   0  0  0  0  0  0  0  0  0  0  0  0
   28.2220   26.8336   17.4017 H   0  0  0  0  0  0  0  0  0  0  0  0
   25.3843   25.2459   12.1569 H   0  0  0  0  0  0  0  0  0  0  0  0
   24.6507   23.2167   10.9043 H   0  0  0  0  0  0  0  0  0  0  0  0
   26.3246   21.5053   10.2061 H   0  0  0  0  0  0  0  0  0  0  0  0
   28.7390   21.8238   10.7443 H   0  0  0  0  0  0  0  0  0  0  0  0
   29.4841   23.8625   11.9826 H   0  0  0  0  0  0  0  0  0  0  0  0
  2  1  1  0
  3  1  1  0
  3  2  1  0
  4  2  1  0
  5  4  2  0
  6  5  1  0
  7  6  2  0
  8  7  1  0
  9  4  1  0
  9  8  2  0
 10  1  1  0
 11 10  2  0
 12 10  1  0
 13  3  1  0
 14 13  2  0
 15 13  2  0
 16 13  1  0
 17 16  2  0
 18 17  1  0
 19 18  2  0
 20 19  1  0
 21 20  2  0
 21 16  1  0
 23 22  3  0
  1 23  1  6
  2 24  1  6
  3 25  1  6
  5 26  1  0
  6 27  1  0
  7 28  1  0
  8 29  1  0
  9 30  1  0
 17 31  1  0
 18 32  1  0
 19 33  1  0
 20 34  1  0
 21 35  1  0
M  CHG  1  12  -1
M  END
$$$$
=
     RDKit          3D

 31 31  0  0  0  0  0  0  0  0999 V2000
   19.7540   15.2520    4.8780 O   0  0  0  0  0  0  0  0  0  0  0  0
   18.3900   15.2700    4.7970 C   0  0  0  0  0  0  0  0  0  0  0  0
   17.6970   14.7050    3.7320 C   0  0  0  0  0  0  0  0  0  0  0  0
   16.3020   14.7930    3.6890 C   0  0  0  0  0  0  0  0  0  0  0  0
   15.5990   15.4570    4.6980 C   0  0  0  0  0  0  0  0  0  0  0  0
   16.3050   16.0440    5.7500 C   0  0  0  0  0  0  0  0  0  0  0  0
   17.7010   15.9570    5.7920 C   0  0  0  0  0  0  0  0  0  0  0  0
   14.2390   15.4690    4.5380 O   0  0  0  0  0  0  0  0  0  0  0  0
   13.6070   14.2090    4.3600 C   0  0  0  0  0  0  0  0  0  0  0  0
   20.3270   16.4950    5.3650 C   0  0  1  0  0  0  0  0  0  0  0  0
   21.3960   16.1970    6.4600 C   0  0  0  0  0  0  0  0  0  0  0  0
   21.0660   15.3190    7.3140 O   0  0  0  0  0  0  0  0  0  0  0  0
   22.4500   16.8980    6.4290 O   0  0  0  0  0  1  0  0  0  0  0  0
   20.8320   17.2940    4.1540 C   0  0  0  0  0  0  0  0  0  0  0  0
   19.5700   17.4900    1.9800 C   0  0  0  0  0  0  0  0  0  0  0  0
   19.7370   18.0440    3.3870 C   0  0  0  0  0  0  0  0  0  0  0  0
   18.2434   14.1913    2.9273 H   0  0  0  0  0  0  0  0  0  0  0  0
   15.7528   14.3352    2.8530 H   0  0  0  0  0  0  0  0  0  0  0  0
   15.7633   16.5753    6.5464 H   0  0  0  0  0  0  0  0  0  0  0  0
   18.2555   16.4331    6.6141 H   0  0  0  0  0  0  0  0  0  0  0  0
   13.3856   13.7677    5.3430 H   0  0  0  0  0  0  0  0  0  0  0  0
   12.6702   14.3446    3.7996 H   0  0  0  0  0  0  0  0  0  0  0  0
   14.2758   13.5392    3.7996 H   0  0  0  0  0  0  0  0  0  0  0  0
   19.5825   17.1274    5.8707 H   0  0  0  0  0  0  0  0  0  0  0  0
   21.5677   18.0300    4.5104 H   0  0  0  0  0  0  0  0  0  0  0  0
   21.2607   16.5628    3.4529 H   0  0  0  0  0  0  0  0  0  0  0  0
   19.2529   16.4381    2.0353 H   0  0  0  0  0  0  0  0  0  0  0  0
   18.8082   18.0749    1.4437 H   0  0  0  0  0  0  0  0  0  0  0  0
   20.5281   17.5564    1.4437 H   0  0  0  0  0  0  0  0  0  0  0  0
   20.0086   19.1080    3.3233 H   0  0  0  0  0  0  0  0  0  0  0  0
   18.7863   17.9168    3.9256 H   0  0  0  0  0  0  0  0  0  0  0  0
  2  1  1  0
  3  2  2  0
  4  3  1  0
  5  4  2  0
  6  5  1  0
  7  6  2  0
  7  2  1  0
  8  5  1  0
  9  8  1  0
 10  1  1  0
 11 10  1  0
 12 11  2  0
 13 11  1  0
 14 10  1  0
 16 15  1  0
 16 14  1  0
  3 17  1  0
  4 18  1  0
  6 19  1  0
  7 20  1  0
  9 21  1  0
  9 22  1  0
  9 23  1  0
 10 24  1  1
 14 25  1  0
 14 26  1  0
 15 27  1  0
 15 28  1  0
 15 29  1  0
 16 30  1  0
 16 31  1  0
M  CHG  1  13  -1
M  END
$$$$
=
     RDKit          3D

 37 38  0  0  0  0  0  0  0  0999 V2000
   20.7520   17.1880    3.9760 C   0  0  2  0  0  0  0  0  0  0  0  0
   21.0520   15.8800    4.7170 C   0  0  0  0  0  0  0  0  0  0  0  0
   21.8150   16.1180    6.0350 C   0  0  0  0  0  0  0  0  0  0  0  0
   22.5180   17.4790    6.0700 C   0  0  0  0  0  0  0  0  0  0  0  0
   21.5340   18.6340    5.8350 C   0  0  0  0  0  0  0  0  0  0  0  0
   20.4230   18.2200    4.9970 N   0  0  0  0  0  0  0  0  0  0  0  0
   19.1320   18.5070    5.4040 C   0  0  0  0  0  0  0  0  0  0  0  0
   18.8590   19.3560    6.2500 O   0  0  0  0  0  0  0  0  0  0  0  0
   19.4240   15.9040    2.4380 O   0  0  0  0  0  1  0  0  0  0  0  0
   19.8350   17.0680    2.7180 C   0  0  0  0  0  0  0  0  0  0  0  0
   19.6380   18.1470    2.0810 O   0  0  0  0  0  0  0  0  0  0  0  0
   18.1980   17.7130    4.8240 O   0  0  0  0  0  0  0  0  0  0  0  0
   17.3570   17.0270    5.7470 C   0  0  0  0  0  0  0  0  0  0  0  0
   16.6040   15.9190    5.0420 C   0  0  0  0  0  0  0  0  0  0  0  0
   17.2770   15.0180    4.2020 C   0  0  0  0  0  0  0  0  0  0  0  0
   16.5850   14.0040    3.5330 C   0  0  0  0  0  0  0  0  0  0  0  0
   15.2020   13.8990    3.6960 C   0  0  0  0  0  0  0  0  0  0  0  0
   14.5090   14.8000    4.5170 C   0  0  0  0  0  0  0  0  0  0  0  0
   15.2120   15.8080    5.1830 C   0  0  0  0  0  0  0  0  0  0  0  0
   14.4620   12.8430    2.9980 N   0  0  0  0  0  4  0  0  0  0  0  0
   13.2240   12.8580    3.0770 O   0  0  0  0  0  0  0  0  0  0  0  0
   15.1070   12.0000    2.3570 O   0  0  0  0  0  1  0  0  0  0  0  0
   21.6497   17.5350    3.4433 H   0  0  0  0  0  0  0  0  0  0  0  0
   20.1012   15.3758    4.9444 H   0  0  0  0  0  0  0  0  0  0  0  0
   21.6879   15.2619    4.0661 H   0  0  0  0  0  0  0  0  0  0  0  0
   21.1004   16.0688    6.8698 H   0  0  0  0  0  0  0  0  0  0  0  0
   22.5888   15.3405    6.1177 H   0  0  0  0  0  0  0  0  0  0  0  0
   22.9924   17.6097    7.0538 H   0  0  0  0  0  0  0  0  0  0  0  0
   23.2671   17.4982    5.2648 H   0  0  0  0  0  0  0  0  0  0  0  0
   21.1432   18.9745    6.8052 H   0  0  0  0  0  0  0  0  0  0  0  0
   22.0698   19.4472    5.3234 H   0  0  0  0  0  0  0  0  0  0  0  0
   17.9736   16.5946    6.5488 H   0  0  0  0  0  0  0  0  0  0  0  0
   16.6342   17.7387    6.1725 H   0  0  0  0  0  0  0  0  0  0  0  0
   18.3648   15.1111    4.0681 H   0  0  0  0  0  0  0  0  0  0  0  0
   17.1239   13.2967    2.8854 H   0  0  0  0  0  0  0  0  0  0  0  0
   13.4189   14.7141    4.6362 H   0  0  0  0  0  0  0  0  0  0  0  0
   14.6699   16.5200    5.8227 H   0  0  0  0  0  0  0  0  0  0  0  0
  2  1  1  0
  3  2  1  0
  4  3  1  0
  5  4  1  0
  6  1  1  0
  6  5  1  0
  7  6  1  0
  8  7  2  0
 10  9  1  0
 10  1  1  0
 11 10  2  0
 12  7  1  0
 13 12  1  0
 14 13  1  0
 15 14  2  0
 16 15  1  0
 17 16  2  0
 18 17  1  0
 19 18  2  0
 19 14  1  0
 20 17  1  0
 21 20  2  0
 22 20  1  0
  1 23  1  6
  2 24  1  0
  2 25  1  0
  3 26  1  0
  3 27  1  0
  4 28  1  0
  4 29  1  0
  5 30  1  0
  5 31  1  0
 13 32  1  0
 13 33  1  0
 15 34  1  0
 16 35  1  0
 18 36  1  0
 19 37  1  0
M  CHG  3   9  -1  20   1  22  -1
M  END
$$$$
=
     RDKit          3D

 28 28  0  0  0  0  0  0  0  0999 V2000
   15.8400   15.6670    5.9860 C   0  0  0  0  0  0  0  0  0  0  0  0
   16.9480   16.0430    5.0160 C   0  0  2  0  0  0  0  0  0  0  0  0
   17.2910   14.9280    4.0400 C   0  0  0  0  0  0  0  0  0  0  0  0
   18.6690   15.3060    3.5000 C   0  0  0  0  0  0  0  0  0  0  0  0
   19.3380   16.2170    4.5770 C   0  0  0  0  0  0  0  0  0  0  0  0
   18.2850   16.3070    5.7070 C   0  0  0  0  0  0  0  0  0  0  0  0
   19.5780   17.6150    3.9260 C   0  0  0  0  0  0  0  0  0  0  0  0
   20.5360   17.9330    2.7670 C   0  0  0  0  0  0  0  0  0  0  0  0
   20.1250   17.7460    1.5910 O   0  0  0  0  0  0  0  0  0  0  0  0
   21.6850   18.3270    3.1440 O   0  0  0  0  0  1  0  0  0  0  0  0
   20.6780   15.6110    5.0640 C   0  0  0  0  0  0  0  0  0  0  0  0
   21.3760   16.0560    6.3680 C   0  0  0  0  0  0  0  0  0  0  0  0
   22.1560   17.0490    6.3070 O   0  0  0  0  0  0  0  0  0  0  0  0
   21.0680   15.3750    7.3940 O   0  0  0  0  0  1  0  0  0  0  0  0
   16.1995   15.7890    7.0184 H   0  0  0  0  0  0  0  0  0  0  0  0
   14.9707   16.3204    5.8208 H   0  0  0  0  0  0  0  0  0  0  0  0
   15.5479   14.6194    5.8208 H   0  0  0  0  0  0  0  0  0  0  0  0
   16.5377   16.9351    4.5203 H   0  0  0  0  0  0  0  0  0  0  0  0
   17.3280   13.9571    4.5557 H   0  0  0  0  0  0  0  0  0  0  0  0
   16.5417   14.8248    3.2413 H   0  0  0  0  0  0  0  0  0  0  0  0
   19.2744   14.4017    3.3392 H   0  0  0  0  0  0  0  0  0  0  0  0
   18.5865   15.8285    2.5355 H   0  0  0  0  0  0  0  0  0  0  0  0
   18.4789   15.5476    6.4789 H   0  0  0  0  0  0  0  0  0  0  0  0
   18.3042   17.2820    6.2159 H   0  0  0  0  0  0  0  0  0  0  0  0
   18.5875   17.9405    3.5752 H   0  0  0  0  0  0  0  0  0  0  0  0
   20.1181   18.1075    4.7480 H   0  0  0  0  0  0  0  0  0  0  0  0
   20.5023   14.5301    5.1676 H   0  0  0  0  0  0  0  0  0  0  0  0
   21.3783   15.9819    4.3011 H   0  0  0  0  0  0  0  0  0  0  0  0
  2  1  1  0
  3  2  1  0
  4  3  1  0
  5  4  1  0
  6  5  1  0
  6  2  1  0
  7  5  1  0
  8  7  1  0
  9  8  2  0
 10  8  1  0
 11  5  1  0
 12 11  1  0
 13 12  2  0
 14 12  1  0
  1 15  1  0
  1 16  1  0
  1 17  1  0
  2 18  1  6
  3 19  1  0
  3 20  1  0
  4 21  1  0
  4 22  1  0
  6 23  1  0
  6 24  1  0
  7 25  1  0
  7 26  1  0
 11 27  1  0
 11 28  1  0
M  CHG  2  10  -1  14  -1
M  END
$$$$
=
     RDKit          3D

 31 31  0  0  0  0  0  0  0  0999 V2000
   17.6570   16.2160    4.9490 C   0  0  0  0  0  0  0  0  0  0  0  0
   16.5180   16.2800    5.7450 C   0  0  0  0  0  0  0  0  0  0  0  0
   15.4200   15.5090    5.3850 C   0  0  0  0  0  0  0  0  0  0  0  0
   15.4760   14.6930    4.2510 C   0  0  0  0  0  0  0  0  0  0  0  0
   16.6490   14.7120    3.5100 C   0  0  0  0  0  0  0  0  0  0  0  0
   17.7460   15.4440    3.8380 N   0  0  0  0  0  0  0  0  0  0  0  0
   14.3330   13.8110    3.8470 C   0  0  0  0  0  0  0  0  0  0  0  0
   13.1730   14.3160    3.9290 O   0  0  0  0  0  0  0  0  0  0  0  0
   14.6290   12.6480    3.4400 O   0  0  0  0  0  1  0  0  0  0  0  0
   18.9270   16.9130    5.3650 C   0  0  0  0  0  0  0  0  0  0  0  0
   20.6480   17.7180    3.7420 C   0  0  0  0  0  0  0  0  0  0  0  0
   20.1710   16.5170    4.5450 N   0  0  1  0  0  4  0  0  0  0  0  0
   21.2740   15.8860    5.3890 C   0  0  0  0  0  0  0  0  0  0  0  0
   22.1590   16.9640    6.0210 C   0  0  0  0  0  0  0  0  0  0  0  0
   20.6640   15.0380    6.5070 C   0  0  0  0  0  0  0  0  0  0  0  0
   16.4876   16.9242    6.6361 H   0  0  0  0  0  0  0  0  0  0  0  0
   14.5042   15.5405    5.9936 H   0  0  0  0  0  0  0  0  0  0  0  0
   16.6938   14.0958    2.5999 H   0  0  0  0  0  0  0  0  0  0  0  0
   18.7752   17.9971    5.2573 H   0  0  0  0  0  0  0  0  0  0  0  0
   19.1260   16.6079    6.4029 H   0  0  0  0  0  0  0  0  0  0  0  0
   20.9650   18.5162    4.4294 H   0  0  0  0  0  0  0  0  0  0  0  0
   21.4967   17.4216    3.1080 H   0  0  0  0  0  0  0  0  0  0  0  0
   19.8272   18.0846    3.1080 H   0  0  0  0  0  0  0  0  0  0  0  0
   19.9003   15.7713    3.8880 H   0  0  0  0  0  0  0  0  0  0  0  0
   21.8840   15.2539    4.7269 H   0  0  0  0  0  0  0  0  0  0  0  0
   22.0993   16.8913    7.1170 H   0  0  0  0  0  0  0  0  0  0  0  0
   23.2009   16.8177    5.7000 H   0  0  0  0  0  0  0  0  0  0  0  0
   21.8125   17.9574    5.7000 H   0  0  0  0  0  0  0  0  0  0  0  0
   20.9603   15.4499    7.4830 H   0  0  0  0  0  0  0  0  0  0  0  0
   19.5675   15.0517    6.4209 H   0  0  0  0  0  0  0  0  0  0  0  0
   21.0257   14.0027    6.4209 H   0  0  0  0  0  0  0  0  0  0  0  0
  2  1  2  0
  3  2  1  0
  4  3  2  0
  5  4  1  0
  6  5  2  0
  6  1  1  0
  7  4  1  0
  8  7  2  0
  9  7  1  0
 10  1  1  0
 12 11  1  0
 12 10  1  0
 13 12  1  0
 14 13  1  0
 15 13  1  0
  2 16  1  0
  3 17  1  0
  5 18  1  0
 10 19  1  0
 10 20  1  0
 11 21  1  0
 11 22  1  0
 11 23  1  0
 12 24  1  6
 13 25  1  0
 14 26  1  0
 14 27  1  0
 14 28  1  0
 15 29  1  0
 15 30  1  0
 15 31  1  0
M  CHG  2   9  -1  12   1
M  END
$$$$
=
     RDKit          3D

 18 17  0  0  0  0  0  0  0  0999 V2000
   19.5970   16.0770    4.8310 N   0  0  0  0  0  0  0  0  0  0  0  0
   18.7310   15.2990    4.1120 C   0  0  0  0  0  0  0  0  0  0  0  0
   19.0880   14.3420    3.4280 O   0  0  0  0  0  0  0  0  0  0  0  0
   17.2660   15.7150    4.2780 C   0  0  2  0  0  0  0  0  0  0  0  0
   16.9310   15.8820    5.7540 C   0  0  0  0  0  0  0  0  0  0  0  0
   16.1490   14.4760    3.5260 S   0  0  0  0  0  0  0  0  0  0  0  0
   21.0480   15.8820    4.8990 C   0  0  0  0  0  0  0  0  0  0  0  0
   22.4980   17.0590    6.3910 O   0  0  0  0  0  1  0  0  0  0  0  0
   21.6100   16.1660    6.3170 C   0  0  0  0  0  0  0  0  0  0  0  0
   21.0920   15.4470    7.2310 O   0  0  0  0  0  0  0  0  0  0  0  0
   19.1979   16.8612    5.3664 H   0  0  0  0  0  0  0  0  0  0  0  0
   17.1218   16.6760    3.7626 H   0  0  0  0  0  0  0  0  0  0  0  0
   17.7500   15.4737    6.3644 H   0  0  0  0  0  0  0  0  0  0  0  0
   16.8012   16.9503    5.9819 H   0  0  0  0  0  0  0  0  0  0  0  0
   15.9998   15.3427    5.9819 H   0  0  0  0  0  0  0  0  0  0  0  0
   15.5148   13.7725    4.5159 H   0  0  0  0  0  0  0  0  0  0  0  0
   21.2790   14.8412    4.6280 H   0  0  0  0  0  0  0  0  0  0  0  0
   21.5177   16.5903    4.2007 H   0  0  0  0  0  0  0  0  0  0  0  0
  2  1  1  0
  3  2  2  0
  4  2  1  0
  5  4  1  0
  6  4  1  0
  7  1  1  0
  9  7  1  0
  9  8  1  0
 10  9  2  0
  1 11  1  0
  4 12  1  6
  5 13  1  0
  5 14  1  0
  5 15  1  0
  6 16  1  0
  7 17  1  0
  7 18  1  0
M  CHG  1   8  -1
M  END
$$$$
=
     RDKit          3D

 48 50  0  0  0  0  0  0  0  0999 V2000
   25.6910   25.2790   14.7030 C   0  0  2  0  0  0  0  0  0  0  0  0
   24.3390   25.7180   14.4590 N   0  0  0  0  0  0  0  0  0  0  0  0
   24.0060   26.7910   15.2810 C   0  0  0  0  0  0  0  0  0  0  0  0
   22.9990   27.4780   15.1610 O   0  0  0  0  0  0  0  0  0  0  0  0
   25.1200   26.9710   16.3110 C   0  0  0  0  0  0  0  0  0  0  0  0
   26.0460   26.0770   15.9150 C   0  0  0  0  0  0  0  0  0  0  0  0
   25.0210   27.8050   17.2520 O   0  0  0  0  0  1  0  0  0  0  0  0
   27.8730   24.7810   11.5640 C   0  0  0  0  0  0  0  0  0  0  0  0
   28.3860   26.0680   11.3960 C   0  0  0  0  0  0  0  0  0  0  0  0
   28.0350   27.0840   12.2860 C   0  0  0  0  0  0  0  0  0  0  0  0
   27.1690   26.8220   13.3460 C   0  0  0  0  0  0  0  0  0  0  0  0
   26.6470   25.5350   13.5400 C   0  0  0  0  0  0  0  0  0  0  0  0
   27.0070   24.5240   12.6310 C   0  0  0  0  0  0  0  0  0  0  0  0
   27.2570   22.5940   10.8730 C   0  0  0  0  0  0  0  0  0  0  0  0
   28.1360   23.7030   10.7620 O   0  0  0  0  0  0  0  0  0  0  0  0
   27.3400   25.7700   16.5720 C   0  0  0  0  0  0  0  0  0  0  0  0
   27.5040   24.6910   17.1470 O   0  0  0  0  0  0  0  0  0  0  0  0
   28.4950   26.7050   16.4770 C   0  0  0  0  0  0  0  0  0  0  0  0
   28.4430   28.0230   16.9430 C   0  0  0  0  0  0  0  0  0  0  0  0
   29.5360   28.8770   16.7710 C   0  0  0  0  0  0  0  0  0  0  0  0
   30.6830   28.4260   16.1170 C   0  0  0  0  0  0  0  0  0  0  0  0
   30.7400   27.1200   15.6340 C   0  0  0  0  0  0  0  0  0  0  0  0
   29.6490   26.2650   15.8090 C   0  0  0  0  0  0  0  0  0  0  0  0
   23.5650   25.3810   13.2740 C   0  0  0  0  0  0  0  0  0  0  0  0
   22.8080   24.0510   13.2970 C   0  0  0  0  0  0  0  0  0  0  0  0
   21.6700   24.0040   14.3140 C   0  0  0  0  0  0  0  0  0  0  0  0
   22.0970   23.4760   15.6900 C   0  0  0  0  0  0  0  0  0  0  0  0
   22.5780   22.3050   15.6800 O   0  0  0  0  0  0  0  0  0  0  0  0
   21.9340   24.2500   16.6740 O   0  0  0  0  0  1  0  0  0  0  0  0
   25.7709   24.1896   14.8323 H   0  0  0  0  0  0  0  0  0  0  0  0
   29.0685   26.2820   10.5603 H   0  0  0  0  0  0  0  0  0  0  0  0
   28.4437   28.0962   12.1502 H   0  0  0  0  0  0  0  0  0  0  0  0
   26.8924   27.6321   14.0368 H   0  0  0  0  0  0  0  0  0  0  0  0
   26.5991   23.5109   12.7622 H   0  0  0  0  0  0  0  0  0  0  0  0
   27.0803   22.3711   11.9356 H   0  0  0  0  0  0  0  0  0  0  0  0
   26.3009   22.8336   10.3847 H   0  0  0  0  0  0  0  0  0  0  0  0
   27.7086   21.7179   10.3847 H   0  0  0  0  0  0  0  0  0  0  0  0
   27.5368   28.3893   17.4476 H   0  0  0  0  0  0  0  0  0  0  0  0
   29.4918   29.9078   17.1524 H   0  0  0  0  0  0  0  0  0  0  0  0
   31.5414   29.1006   15.9828 H   0  0  0  0  0  0  0  0  0  0  0  0
   31.6423   26.7630   15.1159 H   0  0  0  0  0  0  0  0  0  0  0  0
   29.6945   25.2372   15.4197 H   0  0  0  0  0  0  0  0  0  0  0  0
   22.8261   26.1814   13.1209 H   0  0  0  0  0  0  0  0  0  0  0  0
   24.3059   25.2756   12.4678 H   0  0  0  0  0  0  0  0  0  0  0  0
   22.3858   23.8755   12.2965 H   0  0  0  0  0  0  0  0  0  0  0  0
   23.5317   23.2769   13.5919 H   0  0  0  0  0  0  0  0  0  0  0  0
   21.2739   25.0225   14.4400 H   0  0  0  0  0  0  0  0  0  0  0  0
   20.9151   23.3070   13.9212 H   0  0  0  0  0  0  0  0  0  0  0  0
  2  1  1  0
  3  2  1  0
  4  3  2  0
  5  3  1  0
  6  5  2  0
  6  1  1  0
  7  5  1  0
  9  8  2  0
 10  9  1  0
 11 10  2  0
 12 11  1  0
 12  1  1  0
 13 12  2  0
 13  8  1  0
 15 14  1  0
 15  8  1  0
 16  6  1  0
 17 16  2  0
 18 16  1  0
 19 18  2  0
 20 19  1  0
 21 20  2  0
 22 21  1  0
 23 22  2  0
 23 18  1  0
 24  2  1  0
 25 24  1  0
 26 25  1  0
 27 26  1  0
 28 27  2  0
 29 27  1  0
  1 30  1  1
  9 31  1  0
 10 32  1  0
 11 33  1  0
 13 34  1  0
 14 35  1  0
 14 36  1  0
 14 37  1  0
 19 38  1  0
 20 39  1  0
 21 40  1  0
 22 41  1  0
 23 42  1  0
 24 43  1  0
 24 44  1  0
 25 45  1  0
 25 46  1  0
 26 47  1  0
 26 48  1  0
M  CHG  2   7  -1  29  -1
M  END
$$$$
=
     RDKit          3D

 29 30  0  0  0  0  0  0  0  0999 V2000
   17.1300   15.0750    3.7060 N   0  0  0  0  0  0  0  0  0  0  0  0
   18.4670   14.7160    3.5850 C   0  0  0  0  0  0  0  0  0  0  0  0
   18.8960   13.5870    3.3960 O   0  0  0  0  0  0  0  0  0  0  0  0
   12.3220   14.4830    4.5260 C   0  0  0  0  0  0  0  0  0  0  0  0
   13.5970   13.9960    3.9070 C   0  0  0  0  0  0  0  0  0  0  0  0
   13.6340   12.7800    3.2180 C   0  0  0  0  0  0  0  0  0  0  0  0
   14.8310   12.3230    2.6680 C   0  0  0  0  0  0  0  0  0  0  0  0
   16.0040   13.0670    2.8120 C   0  0  0  0  0  0  0  0  0  0  0  0
   15.9930   14.2710    3.5160 C   0  0  0  0  0  0  0  0  0  0  0  0
   14.7850   14.7290    4.0590 C   0  0  0  0  0  0  0  0  0  0  0  0
   19.3810   15.8740    3.8660 C   0  0  0  0  0  0  0  0  0  0  0  0
   19.7190   16.6000    2.7380 N   0  0  0  0  0  0  0  0  0  0  0  0
   20.4560   17.7070    2.9620 C   0  0  0  0  0  0  0  0  0  0  0  0
   20.8650   18.0890    4.2250 C   0  0  0  0  0  0  0  0  0  0  0  0
   20.5760   17.3680    5.3240 N   0  0  0  0  0  0  0  0  0  0  0  0
   19.8220   16.2220    5.1360 C   0  0  0  0  0  0  0  0  0  0  0  0
   19.6110   15.2630    6.2810 C   0  0  0  0  0  0  0  0  0  0  0  0
   20.6630   14.7190    6.7510 O   0  0  0  0  0  0  0  0  0  0  0  0
   18.4260   15.1230    6.7220 O   0  0  0  0  0  1  0  0  0  0  0  0
   16.9494   16.0546    3.9682 H   0  0  0  0  0  0  0  0  0  0  0  0
   12.4102   14.4493    5.6219 H   0  0  0  0  0  0  0  0  0  0  0  0
   12.1304   15.5176    4.2052 H   0  0  0  0  0  0  0  0  0  0  0  0
   11.4895   13.8396    4.2052 H   0  0  0  0  0  0  0  0  0  0  0  0
   12.7168   12.1825    3.1096 H   0  0  0  0  0  0  0  0  0  0  0  0
   14.8515   11.3709    2.1175 H   0  0  0  0  0  0  0  0  0  0  0  0
   16.9416   12.7015    2.3678 H   0  0  0  0  0  0  0  0  0  0  0  0
   14.7671   15.6788    4.6137 H   0  0  0  0  0  0  0  0  0  0  0  0
   20.7434   18.3317    2.1034 H   0  0  0  0  0  0  0  0  0  0  0  0
   21.4476   19.0154    4.3364 H   0  0  0  0  0  0  0  0  0  0  0  0
  2  1  1  0
  3  2  2  0
  5  4  1  0
  6  5  2  0
  7  6  1  0
  8  7  2  0
  9  8  1  0
  9  1  1  0
 10  9  2  0
 10  5  1  0
 11  2  1  0
 12 11  2  0
 13 12  1  0
 14 13  2  0
 15 14  1  0
 16 11  1  0
 16 15  2  0
 17 16  1  0
 18 17  2  0
 19 17  1  0
  1 20  1  0
  4 21  1  0
  4 22  1  0
  4 23  1  0
  6 24  1  0
  7 25  1  0
  8 26  1  0
 10 27  1  0
 13 28  1  0
 14 29  1  0
M  CHG  1  19  -1
M  END
$$$$
=
     RDKit          3D

 59 60  0  0  0  0  0  0  0  0999 V2000
   24.3110   26.1620   12.9900 C   0  0  0  0  0  0  0  0  0  0  0  0
   25.6270   26.6850   12.7700 O   0  0  0  0  0  0  0  0  0  0  0  0
   26.6620   25.7730   12.7230 C   0  0  0  0  0  0  0  0  0  0  0  0
   26.6380   24.6460   11.8830 C   0  0  0  0  0  0  0  0  0  0  0  0
   27.7180   23.7530   11.8790 C   0  0  0  0  0  0  0  0  0  0  0  0
   28.8270   23.9620   12.6940 C   0  0  0  0  0  0  0  0  0  0  0  0
   28.8450   25.0710   13.5350 C   0  0  0  0  0  0  0  0  0  0  0  0
   27.7750   25.9900   13.5820 C   0  0  0  0  0  0  0  0  0  0  0  0
   27.6820   22.5710   11.0150 N   0  0  0  0  0  4  0  0  0  0  0  0
   28.7500   22.1610   10.5360 O   0  0  0  0  0  0  0  0  0  0  0  0
   26.5790   22.0400   10.8010 O   0  0  0  0  0  1  0  0  0  0  0  0
   27.8090   27.0790   14.4940 N   0  0  0  0  0  0  0  0  0  0  0  0
   29.1460   27.7250   14.6710 C   0  0  0  0  0  0  0  0  0  0  0  0
   29.9200   27.6630   16.0200 C   0  0  0  0  0  0  0  0  0  0  0  0
   29.8060   28.6200   16.8410 O   0  0  0  0  0  0  0  0  0  0  0  0
   30.5880   26.5860   16.1920 O   0  0  0  0  0  1  0  0  0  0  0  0
   27.1450   26.6930   15.7820 C   0  0  0  0  0  0  0  0  0  0  0  0
   26.1750   27.6570   16.5370 C   0  0  0  0  0  0  0  0  0  0  0  0
   25.0830   27.9220   15.9350 O   0  0  0  0  0  0  0  0  0  0  0  0
   26.5490   28.1200   17.6590 O   0  0  0  0  0  1  0  0  0  0  0  0
   23.4380   26.3860   11.7530 C   0  0  0  0  0  0  0  0  0  0  0  0
   22.2440   27.1040   12.0870 O   0  0  0  0  0  0  0  0  0  0  0  0
   20.3100   26.1100   13.0840 C   0  0  0  0  0  0  0  0  0  0  0  0
   19.0600   25.4860   12.9180 C   0  0  0  0  0  0  0  0  0  0  0  0
   18.5240   25.2270   11.6540 C   0  0  0  0  0  0  0  0  0  0  0  0
   19.2340   25.5770   10.5090 C   0  0  0  0  0  0  0  0  0  0  0  0
   20.4770   26.2110   10.6490 C   0  0  0  0  0  0  0  0  0  0  0  0
   21.0250   26.4850   11.9150 C   0  0  0  0  0  0  0  0  0  0  0  0
   18.6670   25.3270    9.1440 C   0  0  0  0  0  0  0  0  0  0  0  0
   20.8340   26.3460   14.3850 N   0  0  0  0  0  0  0  0  0  0  0  0
   20.7480   25.1140   15.2300 C   0  0  0  0  0  0  0  0  0  0  0  0
   21.9110   24.6010   16.1320 C   0  0  0  0  0  0  0  0  0  0  0  0
   23.0370   25.1860   16.0640 O   0  0  0  0  0  1  0  0  0  0  0  0
   21.6370   23.5800   16.8480 O   0  0  0  0  0  0  0  0  0  0  0  0
   20.3420   27.5890   15.0500 C   0  0  0  0  0  0  0  0  0  0  0  0
   21.7030   28.0950   17.0170 O   0  0  0  0  0  0  0  0  0  0  0  0
   20.5420   27.8580   16.5710 C   0  0  0  0  0  0  0  0  0  0  0  0
   19.4640   27.7960   17.2590 O   0  0  0  0  0  1  0  0  0  0  0  0
   24.3786   25.0836   13.1962 H   0  0  0  0  0  0  0  0  0  0  0  0
   23.8577   26.6813   13.8472 H   0  0  0  0  0  0  0  0  0  0  0  0
   25.7720   24.4652   11.2293 H   0  0  0  0  0  0  0  0  0  0  0  0
   29.6754   23.2621   12.6737 H   0  0  0  0  0  0  0  0  0  0  0  0
   29.7191   25.2360   14.1821 H   0  0  0  0  0  0  0  0  0  0  0  0
   29.8074   27.2757   13.9156 H   0  0  0  0  0  0  0  0  0  0  0  0
   28.8977   28.7940   14.5962 H   0  0  0  0  0  0  0  0  0  0  0  0
   26.5681   25.7809   15.5692 H   0  0  0  0  0  0  0  0  0  0  0  0
   27.9988   26.6379   16.4734 H   0  0  0  0  0  0  0  0  0  0  0  0
   24.0085   26.9633   11.0105 H   0  0  0  0  0  0  0  0  0  0  0  0
   23.1530   25.4052   11.3445 H   0  0  0  0  0  0  0  0  0  0  0  0
   18.4874   25.1932   13.8104 H   0  0  0  0  0  0  0  0  0  0  0  0
   17.5391   24.7456   11.5635 H   0  0  0  0  0  0  0  0  0  0  0  0
   21.0366   26.5008    9.7474 H   0  0  0  0  0  0  0  0  0  0  0  0
   17.6642   24.8849    9.2388 H   0  0  0  0  0  0  0  0  0  0  0  0
   18.5980   26.2782    8.5958 H   0  0  0  0  0  0  0  0  0  0  0  0
   19.3227   24.6345    8.5958 H   0  0  0  0  0  0  0  0  0  0  0  0
   19.8933   25.2722   15.9042 H   0  0  0  0  0  0  0  0  0  0  0  0
   20.7152   24.3298   14.4593 H   0  0  0  0  0  0  0  0  0  0  0  0
   20.8233   28.4275   14.5253 H   0  0  0  0  0  0  0  0  0  0  0  0
   19.2511   27.4642   14.9840 H   0  0  0  0  0  0  0  0  0  0  0  0
  2  1  1  0
  3  2  1  0
  4  3  2  0
  5  4  1  0
  6  5  2  0
  7  6  1  0
  8  3  1  0
  8  7  2  0
  9  5  1  0
 10  9  2  0
 11  9  1  0
 12  8  1  0
 13 12  1  0
 14 13  1  0
 15 14  2  0
 16 14  1  0
 17 12  1  0
 18 17  1  0
 19 18  2  0
 20 18  1  0
 21  1  1  0
 22 21  1  0
 24 23  2  0
 25 24  1  0
 26 25  2  0
 27 26  1  0
 28 27  2  0
 28 23  1  0
 28 22  1  0
 29 26  1  0
 30 23  1  0
 31 30  1  0
 32 31  1  0
 33 32  1  0
 34 32  2  0
 35 30  1  0
 37 35  1  0
 37 36  2  0
 38 37  1  0
  1 39  1  0
  1 40  1  0
  4 41  1  0
  6 42  1  0
  7 43  1  0
 13 44  1  0
 13 45  1  0
 17 46  1  0
 17 47  1  0
 21 48  1  0
 21 49  1  0
 24 50  1  0
 25 51  1  0
 27 52  1  0
 29 53  1  0
 29 54  1  0
 29 55  1  0
 31 56  1  0
 31 57  1  0
 35 58  1  0
 35 59  1  0
M  CHG  6   9   1  11  -1  16  -1  20  -1  33  -1  38  -1
M  END
$$$$
=
     RDKit          3D

 33 35  0  0  0  0  0  0  0  0999 V2000
   18.4620   15.8820    3.4850 C   0  0  0  0  0  0  0  0  0  0  0  0
   19.5110   15.8300    4.5860 C   0  0  0  0  0  0  0  0  0  0  0  0
   19.3870   14.8010    5.5410 C   0  0  0  0  0  0  0  0  0  0  0  0
   20.2910   14.6790    6.5890 C   0  0  0  0  0  0  0  0  0  0  0  0
   21.3390   15.5860    6.7040 C   0  0  0  0  0  0  0  0  0  0  0  0
   21.5000   16.6210    5.7720 C   0  0  0  0  0  0  0  0  0  0  0  0
   20.5880   16.7570    4.6900 C   0  0  0  0  0  0  0  0  0  0  0  0
   20.8230   17.8190    3.7840 C   0  0  0  0  0  0  0  0  0  0  0  0
   21.9000   18.6980    3.9330 C   0  0  0  0  0  0  0  0  0  0  0  0
   22.7740   18.5480    4.9990 C   0  0  0  0  0  0  0  0  0  0  0  0
   22.5750   17.5150    5.9110 C   0  0  0  0  0  0  0  0  0  0  0  0
   15.3890   13.8250    3.6530 C   0  0  0  0  0  0  0  0  0  0  0  0
   14.6150   14.5260    4.6500 C   0  0  0  0  0  0  0  0  0  0  0  0
   15.0960   15.6310    5.2330 C   0  0  0  0  0  0  0  0  0  0  0  0
   16.4370   16.1560    4.8560 C   0  0  0  0  0  0  0  0  0  0  0  0
   16.8360   17.1940    5.3860 O   0  0  0  0  0  0  0  0  0  0  0  0
   17.1430   15.4190    3.9080 N   0  0  0  0  0  0  0  0  0  0  0  0
   16.6080   14.2770    3.3270 C   0  0  0  0  0  0  0  0  0  0  0  0
   15.5800   11.9450    2.1950 O   0  0  0  0  0  1  0  0  0  0  0  0
   14.7950   12.5670    2.9700 C   0  0  0  0  0  0  0  0  0  0  0  0
   13.5900   12.3060    3.2540 O   0  0  0  0  0  0  0  0  0  0  0  0
   18.3708   16.9229    3.1412 H   0  0  0  0  0  0  0  0  0  0  0  0
   18.7998   15.2043    2.6871 H   0  0  0  0  0  0  0  0  0  0  0  0
   18.5595   14.0814    5.4551 H   0  0  0  0  0  0  0  0  0  0  0  0
   20.1783   13.8687    7.3244 H   0  0  0  0  0  0  0  0  0  0  0  0
   22.0509   15.4901    7.5371 H   0  0  0  0  0  0  0  0  0  0  0  0
   20.1364   17.9571    2.9358 H   0  0  0  0  0  0  0  0  0  0  0  0
   22.0539   19.5081    3.2050 H   0  0  0  0  0  0  0  0  0  0  0  0
   23.6193   19.2408    5.1233 H   0  0  0  0  0  0  0  0  0  0  0  0
   23.2711   17.3968    6.7545 H   0  0  0  0  0  0  0  0  0  0  0  0
   13.6212   14.1488    4.9331 H   0  0  0  0  0  0  0  0  0  0  0  0
   14.4976   16.1533    5.9940 H   0  0  0  0  0  0  0  0  0  0  0  0
   17.2002   13.7288    2.5795 H   0  0  0  0  0  0  0  0  0  0  0  0
  2  1  1  0
  3  2  2  0
  4  3  1  0
  5  4  2  0
  6  5  1  0
  7  2  1  0
  7  6  2  0
  8  7  1  0
  9  8  2  0
 10  9  1  0
 11  6  1  0
 11 10  2  0
 13 12  1  0
 14 13  2  0
 15 14  1  0
 16 15  2  0
 17 15  1  0
 17  1  1  0
 18 12  2  0
 18 17  1  0
 20 19  1  0
 20 12  1  0
 21 20  2  0
  1 22  1  0
  1 23  1  0
  3 24  1  0
  4 25  1  0
  5 26  1  0
  8 27  1  0
  9 28  1  0
 10 29  1  0
 11 30  1  0
 13 31  1  0
 14 32  1  0
 18 33  1  0
M  CHG  1  19  -1
M  END
$$$$
=
     RDKit          3D

 28 29  0  0  0  0  0  0  0  0999 V2000
   18.9080   14.2810    3.9100 C   0  0  0  0  0  0  0  0  0  0  0  0
   21.2570   16.5850    5.3190 C   0  0  0  0  0  0  0  0  0  0  0  0
   21.0770   15.8470    6.4750 C   0  0  0  0  0  0  0  0  0  0  0  0
   20.1460   14.8260    6.1700 C   0  0  0  0  0  0  0  0  0  0  0  0
   19.8060   14.9980    4.8450 C   0  0  0  0  0  0  0  0  0  0  0  0
   20.4650   16.0710    4.3290 O   0  0  0  0  0  0  0  0  0  0  0  0
   22.1090   18.5130    4.1050 O   0  0  0  0  0  1  0  0  0  0  0  0
   22.2350   17.8230    5.1650 C   0  0  0  0  0  0  0  0  0  0  0  0
   23.0520   18.0230    6.1160 O   0  0  0  0  0  0  0  0  0  0  0  0
   17.2130   14.9520    3.9240 S   0  0  0  0  0  0  0  0  0  0  0  0
   16.3190   13.5530    3.1630 C   0  0  0  0  0  0  0  0  0  0  0  0
   14.8290   13.5920    3.3950 C   0  0  0  0  0  0  0  0  0  0  0  0
   13.9980   12.6160    2.8260 C   0  0  0  0  0  0  0  0  0  0  0  0
   12.6190   12.6450    3.0390 C   0  0  0  0  0  0  0  0  0  0  0  0
   12.0540   13.6440    3.8280 C   0  0  0  0  0  0  0  0  0  0  0  0
   12.8670   14.6170    4.4050 C   0  0  0  0  0  0  0  0  0  0  0  0
   14.2480   14.5910    4.1920 C   0  0  0  0  0  0  0  0  0  0  0  0
   19.3147   14.3693    2.8917 H   0  0  0  0  0  0  0  0  0  0  0  0
   18.8561   13.2308    4.2331 H   0  0  0  0  0  0  0  0  0  0  0  0
   21.5644   16.0206    7.4457 H   0  0  0  0  0  0  0  0  0  0  0  0
   19.7691   14.0505    6.8531 H   0  0  0  0  0  0  0  0  0  0  0  0
   16.5029   13.5711    2.0786 H   0  0  0  0  0  0  0  0  0  0  0  0
   16.6955   12.6337    3.6353 H   0  0  0  0  0  0  0  0  0  0  0  0
   14.4371   11.8204    2.2062 H   0  0  0  0  0  0  0  0  0  0  0  0
   11.9770   11.8772    2.5827 H   0  0  0  0  0  0  0  0  0  0  0  0
   10.9670   13.6647    3.9954 H   0  0  0  0  0  0  0  0  0  0  0  0
   12.4218   15.4062    5.0286 H   0  0  0  0  0  0  0  0  0  0  0  0
   14.8853   15.3601    4.6529 H   0  0  0  0  0  0  0  0  0  0  0  0
  3  2  2  0
  4  3  1  0
  5  1  1  0
  5  4  2  0
  6  5  1  0
  6  2  1  0
  8  2  1  0
  8  7  1  0
  9  8  2  0
 10  1  1  0
 11 10  1  0
 12 11  1  0
 13 12  2  0
 14 13  1  0
 15 14  2  0
 16 15  1  0
 17 16  2  0
 17 12  1  0
  1 18  1  0
  1 19  1  0
  3 20  1  0
  4 21  1  0
 11 22  1  0
 11 23  1  0
 13 24  1  0
 14 25  1  0
 15 26  1  0
 16 27  1  0
 17 28  1  0
M  CHG  1   7  -1
M  END
$$$$
=
     RDKit          3D

 44 44  0  0  0  0  0  0  0  0999 V2000
   16.6530   15.0020    4.3430 C   0  0  0  0  0  0  0  0  0  0  0  0
   15.5000   15.4930    4.9790 C   0  0  0  0  0  0  0  0  0  0  0  0
   14.2200   14.9700    4.7300 C   0  0  0  0  0  0  0  0  0  0  0  0
   14.0340   13.9320    3.8190 C   0  0  0  0  0  0  0  0  0  0  0  0
   15.1620   13.4180    3.1840 C   0  0  0  0  0  0  0  0  0  0  0  0
   16.4380   13.9470    3.4400 C   0  0  0  0  0  0  0  0  0  0  0  0
   12.6830   13.3950    3.6100 C   0  0  0  0  0  0  0  0  0  0  0  0
   12.3140   12.6050    2.5900 C   0  0  0  0  0  0  0  0  0  0  0  0
   10.8840   12.0850    2.4300 C   0  0  0  0  0  0  0  0  0  0  0  0
   10.7550   10.9120    1.9850 O   0  0  0  0  0  0  0  0  0  0  0  0
    9.9990   12.9210    2.7720 O   0  0  0  0  0  1  0  0  0  0  0  0
   17.9190   15.5230    4.5930 N   0  0  0  0  0  0  0  0  0  0  0  0
   18.1700   16.9720    4.6160 C   0  0  0  0  0  0  0  0  0  0  0  0
   19.2220   17.3770    3.5770 C   0  0  0  0  0  0  0  0  0  0  0  0
   20.1030   18.6590    5.5980 C   0  0  0  0  0  0  0  0  0  0  0  0
   20.2210   18.4110    4.1030 C   0  0  0  0  0  0  0  0  0  0  0  0
   19.0770   14.6460    4.8050 C   0  0  0  0  0  0  0  0  0  0  0  0
   19.4480   14.5680    6.2880 C   0  0  0  0  0  0  0  0  0  0  0  0
   20.8140   15.2030    6.5510 C   0  0  0  0  0  0  0  0  0  0  0  0
   21.6440   15.2830    5.2790 C   0  0  0  0  0  0  0  0  0  0  0  0
   15.6036   16.3181    5.6991 H   0  0  0  0  0  0  0  0  0  0  0  0
   13.3518   15.3861    5.2621 H   0  0  0  0  0  0  0  0  0  0  0  0
   15.0523   12.5865    2.4723 H   0  0  0  0  0  0  0  0  0  0  0  0
   17.3030   13.5184    2.9127 H   0  0  0  0  0  0  0  0  0  0  0  0
   11.9124   13.6616    4.3483 H   0  0  0  0  0  0  0  0  0  0  0  0
   13.0677   12.3207    1.8410 H   0  0  0  0  0  0  0  0  0  0  0  0
   17.2304   17.5009    4.3981 H   0  0  0  0  0  0  0  0  0  0  0  0
   18.5488   17.2407    5.6132 H   0  0  0  0  0  0  0  0  0  0  0  0
   19.7772   16.4776    3.2725 H   0  0  0  0  0  0  0  0  0  0  0  0
   18.6879   17.8378    2.7330 H   0  0  0  0  0  0  0  0  0  0  0  0
   20.5128   17.7977    6.1460 H   0  0  0  0  0  0  0  0  0  0  0  0
   20.6664   19.5653    5.8649 H   0  0  0  0  0  0  0  0  0  0  0  0
   19.0444   18.7935    5.8649 H   0  0  0  0  0  0  0  0  0  0  0  0
   21.2387   18.0531    3.8883 H   0  0  0  0  0  0  0  0  0  0  0  0
   19.9994   19.3626    3.5977 H   0  0  0  0  0  0  0  0  0  0  0  0
   18.8336   13.6364    4.4424 H   0  0  0  0  0  0  0  0  0  0  0  0
   19.9335   15.0603    4.2530 H   0  0  0  0  0  0  0  0  0  0  0  0
   18.6860   15.0996    6.8768 H   0  0  0  0  0  0  0  0  0  0  0  0
   19.4947   13.5085    6.5799 H   0  0  0  0  0  0  0  0  0  0  0  0
   20.6661   16.2189    6.9461 H   0  0  0  0  0  0  0  0  0  0  0  0
   21.3528   14.5760    7.2766 H   0  0  0  0  0  0  0  0  0  0  0  0
   22.7074   15.3855    5.5409 H   0  0  0  0  0  0  0  0  0  0  0  0
   21.4986   14.3667    4.6881 H   0  0  0  0  0  0  0  0  0  0  0  0
   21.3263   16.1547    4.6881 H   0  0  0  0  0  0  0  0  0  0  0  0
  2  1  2  0
  3  2  1  0
  4  3  2  0
  5  4  1  0
  6  5  2  0
  6  1  1  0
  7  4  1  0
  8  7  2  0
  9  8  1  0
 10  9  2  0
 11  9  1  0
 12  1  1  0
 13 12  1  0
 14 13  1  0
 16 14  1  0
 16 15  1  0
 17 12  1  0
 18 17  1  0
 19 18  1  0
 20 19  1  0
  2 21  1  0
  3 22  1  0
  5 23  1  0
  6 24  1  0
  7 25  1  0
  8 26  1  0
 13 27  1  0
 13 28  1  0
 14 29  1  0
 14 30  1  0
 15 31  1  0
 15 32  1  0
 15 33  1  0
 16 34  1  0
 16 35  1  0
 17 36  1  0
 17 37  1  0
 18 38  1  0
 18 39  1  0
 19 40  1  0
 19 41  1  0
 20 42  1  0
 20 43  1  0
 20 44  1  0
M  CHG  1  11  -1
M  END
$$$$
=
     RDKit          3D

 36 37  0  0  0  0  0  0  0  0999 V2000
   18.6150   17.4110    4.4840 C   0  0  1  0  0  0  0  0  0  0  0  0
   19.4380   16.3320    3.7860 C   0  0  0  0  0  0  0  0  0  0  0  0
   18.4410   15.2780    3.2850 C   0  0  2  0  0  0  0  0  0  0  0  0
   17.0630   15.7550    3.7200 C   0  0  2  0  0  0  0  0  0  0  0  0
   17.3310   16.6870    4.9020 N   0  0  1  0  0  4  0  0  0  0  0  0
   17.4210   16.0120    6.2540 C   0  0  0  0  0  0  0  0  0  0  0  0
   15.8310   14.8860    3.7930 C   0  0  0  0  0  0  0  0  0  0  0  0
   15.8110   13.5300    3.4280 C   0  0  0  0  0  0  0  0  0  0  0  0
   14.6260   12.7830    3.4770 C   0  0  0  0  0  0  0  0  0  0  0  0
   13.4300   13.3820    3.8660 C   0  0  0  0  0  0  0  0  0  0  0  0
   13.4270   14.7290    4.1940 C   0  0  0  0  0  0  0  0  0  0  0  0
   14.6050   15.4690    4.1490 C   0  0  0  0  0  0  0  0  0  0  0  0
   14.5650   16.7800    4.4440 F   0  0  0  0  0  0  0  0  0  0  0  0
   12.2780   15.3210    4.5480 F   0  0  0  0  0  0  0  0  0  0  0  0
   18.8240   13.9400    3.8830 C   0  0  0  0  0  0  0  0  0  0  0  0
   19.1920   13.9970    5.0820 O   0  0  0  0  0  0  0  0  0  0  0  0
   18.7390   12.9590    3.1000 O   0  0  0  0  0  1  0  0  0  0  0  0
   19.3370   18.1920    5.5840 C   0  0  0  0  0  0  0  0  0  0  0  0
   18.8860   19.2030    6.1070 O   0  0  0  0  0  0  0  0  0  0  0  0
   21.6570   18.5280    5.4920 C   0  0  0  0  0  0  0  0  0  0  0  0
   20.5670   17.6650    5.8310 O   0  0  0  0  0  0  0  0  0  0  0  0
   18.3970   18.2535    3.8112 H   0  0  0  0  0  0  0  0  0  0  0  0
   19.9911   16.7644    2.9392 H   0  0  0  0  0  0  0  0  0  0  0  0
   20.1745   15.8880    4.4719 H   0  0  0  0  0  0  0  0  0  0  0  0
   18.4444   15.1512    2.1923 H   0  0  0  0  0  0  0  0  0  0  0  0
   16.6217   16.2213    2.8268 H   0  0  0  0  0  0  0  0  0  0  0  0
   16.5402   17.3254    5.0693 H   0  0  0  0  0  0  0  0  0  0  0  0
   17.3204   16.7666    7.0480 H   0  0  0  0  0  0  0  0  0  0  0  0
   16.6137   15.2707    6.3482 H   0  0  0  0  0  0  0  0  0  0  0  0
   18.3943   15.5082    6.3482 H   0  0  0  0  0  0  0  0  0  0  0  0
   16.7418   13.0456    3.0978 H   0  0  0  0  0  0  0  0  0  0  0  0
   14.6405   11.7169    3.2065 H   0  0  0  0  0  0  0  0  0  0  0  0
   12.5011   12.7946    3.9123 H   0  0  0  0  0  0  0  0  0  0  0  0
   22.1289   18.9016    6.4127 H   0  0  0  0  0  0  0  0  0  0  0  0
   22.3975   17.9687    4.9014 H   0  0  0  0  0  0  0  0  0  0  0  0
   21.2825   19.3770    4.9014 H   0  0  0  0  0  0  0  0  0  0  0  0
  2  1  1  0
  3  2  1  0
  4  3  1  0
  5  4  1  0
  5  1  1  0
  6  5  1  0
  7  4  1  0
  8  7  2  0
  9  8  1  0
 10  9  2  0
 11 10  1  0
 12 11  2  0
 12  7  1  0
 13 12  1  0
 14 11  1  0
 15  3  1  0
 16 15  2  0
 17 15  1  0
 18  1  1  0
 19 18  2  0
 21 20  1  0
 21 18  1  0
  1 22  1  6
  2 23  1  0
  2 24  1  0
  3 25  1  6
  4 26  1  6
  5 27  1  1
  6 28  1  0
  6 29  1  0
  6 30  1  0
  8 31  1  0
  9 32  1  0
 10 33  1  0
 20 34  1  0
 20 35  1  0
 20 36  1  0
M  CHG  2   5   1  17  -1
M  END
$$$$
=
     RDKit          3D

 34 36  0  0  0  0  0  0  0  0999 V2000
   17.8920   13.6710    3.3770 C   0  0  0  0  0  0  0  0  0  0  0  0
   17.7660   14.6700    4.3320 C   0  0  0  0  0  0  0  0  0  0  0  0
   16.4900   15.0540    4.7920 C   0  0  0  0  0  0  0  0  0  0  0  0
   15.3450   14.4000    4.3070 C   0  0  0  0  0  0  0  0  0  0  0  0
   15.4960   13.4020    3.3200 C   0  0  0  0  0  0  0  0  0  0  0  0
   16.7630   13.0450    2.8650 C   0  0  0  0  0  0  0  0  0  0  0  0
   14.4150   12.7470    2.7670 O   0  0  0  0  0  0  0  0  0  0  0  0
   13.1590   13.1350    3.2010 C   0  0  0  0  0  0  0  0  0  0  0  0
   13.0570   14.1390    4.2810 C   0  0  0  0  0  0  0  0  0  0  0  0
   14.0720   14.7180    4.8160 N   0  0  0  0  0  0  0  0  0  0  0  0
   11.7040   14.4760    4.7560 C   0  0  0  0  0  0  0  0  0  0  0  0
   10.6070   13.9440    4.2120 C   0  0  0  0  0  0  0  0  0  0  0  0
   10.6870   12.9700    3.0820 C   0  0  0  0  0  0  0  0  0  0  0  0
    9.6230   12.4800    2.5090 N   0  0  0  0  0  4  0  0  0  0  0  0
    8.2400   12.7720    3.0010 C   0  0  0  0  0  0  0  0  0  0  0  0
    9.6960   11.5920    1.3050 C   0  0  0  0  0  0  0  0  0  0  0  0
   12.0660   12.5950    2.6520 C   0  0  0  0  0  0  0  0  0  0  0  0
   16.4140   16.1680    5.7950 C   0  0  0  0  0  0  0  0  0  0  0  0
   16.5190   17.3590    5.3660 O   0  0  0  0  0  0  0  0  0  0  0  0
   16.3260   15.8090    7.0110 O   0  0  0  0  0  1  0  0  0  0  0  0
   19.1150   13.2760    2.9090 O   0  0  0  0  0  0  0  0  0  0  0  0
   16.9200   12.0710    1.9110 O   0  0  0  0  0  0  0  0  0  0  0  0
   18.6643   15.1636    4.7312 H   0  0  0  0  0  0  0  0  0  0  0  0
   11.5939   15.1893    5.5861 H   0  0  0  0  0  0  0  0  0  0  0  0
    9.6203   14.2298    4.6053 H   0  0  0  0  0  0  0  0  0  0  0  0
    8.2348   12.7731    4.1010 H   0  0  0  0  0  0  0  0  0  0  0  0
    7.9199   13.7575    2.6318 H   0  0  0  0  0  0  0  0  0  0  0  0
    7.5489   12.0000    2.6318 H   0  0  0  0  0  0  0  0  0  0  0  0
    9.7822   10.5438    1.6272 H   0  0  0  0  0  0  0  0  0  0  0  0
    8.7846   11.7165    0.7018 H   0  0  0  0  0  0  0  0  0  0  0  0
   10.5748   11.8636    0.7018 H   0  0  0  0  0  0  0  0  0  0  0  0
   12.1876   11.8472    1.8545 H   0  0  0  0  0  0  0  0  0  0  0  0
   19.1767   12.5607    2.2274 H   0  0  0  0  0  0  0  0  0  0  0  0
   17.8267   11.8274    1.5968 H   0  0  0  0  0  0  0  0  0  0  0  0
  2  1  2  0
  3  2  1  0
  4  3  2  0
  5  4  1  0
  6  5  2  0
  6  1  1  0
  7  5  1  0
  8  7  1  0
  9  8  1  0
 10  9  2  0
 10  4  1  0
 11  9  1  0
 12 11  2  0
 13 12  1  0
 14 13  2  3
 15 14  1  0
 16 14  1  0
 17 13  1  0
 17  8  2  0
 18  3  1  0
 19 18  2  0
 20 18  1  0
 21  1  1  0
 22  6  1  0
  2 23  1  0
 11 24  1  0
 12 25  1  0
 15 26  1  0
 15 27  1  0
 15 28  1  0
 16 29  1  0
 16 30  1  0
 16 31  1  0
 17 32  1  0
 21 33  1  0
 22 34  1  0
M  CHG  2  14   1  20  -1
M  END
$$$$
=
     RDKit          3D

 25 26  0  0  0  0  0  0  0  0999 V2000
   20.2560   17.7040    4.1430 C   0  0  0  0  0  0  0  0  0  0  0  0
   21.4330   18.4570    4.2110 C   0  0  0  0  0  0  0  0  0  0  0  0
   22.4280   18.1360    5.1450 C   0  0  0  0  0  0  0  0  0  0  0  0
   22.2660   17.0470    6.0030 C   0  0  0  0  0  0  0  0  0  0  0  0
   21.0940   16.3060    5.9190 C   0  0  0  0  0  0  0  0  0  0  0  0
   20.0830   16.6320    5.0030 C   0  0  0  0  0  0  0  0  0  0  0  0
   18.9560   15.6350    5.0800 C   0  0  1  0  0  0  0  0  0  0  0  0
   19.2440   14.9530    6.4350 C   0  0  0  0  0  0  0  0  0  0  0  0
   20.7510   15.0670    6.6820 C   0  0  0  0  0  0  0  0  0  0  0  0
   17.5370   16.2050    5.1030 C   0  0  0  0  0  0  0  0  0  0  0  0
   16.7450   15.6920    4.2550 O   0  0  0  0  0  0  0  0  0  0  0  0
   17.2810   17.0900    5.9710 O   0  0  0  0  0  1  0  0  0  0  0  0
   19.7750   17.4620    1.9120 C   0  0  0  0  0  0  0  0  0  0  0  0
   19.3440   17.9880    3.1690 O   0  0  0  0  0  0  0  0  0  0  0  0
   21.5787   19.3063    3.5273 H   0  0  0  0  0  0  0  0  0  0  0  0
   23.3417   18.7459    5.2020 H   0  0  0  0  0  0  0  0  0  0  0  0
   23.0485   16.7816    6.7291 H   0  0  0  0  0  0  0  0  0  0  0  0
   18.9488   15.0016    4.1807 H   0  0  0  0  0  0  0  0  0  0  0  0
   18.6900   15.4603    7.2386 H   0  0  0  0  0  0  0  0  0  0  0  0
   18.9272   13.8997    6.4196 H   0  0  0  0  0  0  0  0  0  0  0  0
   20.9736   15.1819    7.7531 H   0  0  0  0  0  0  0  0  0  0  0  0
   21.3216   14.1798    6.3700 H   0  0  0  0  0  0  0  0  0  0  0  0
   20.4637   16.6215    2.0830 H   0  0  0  0  0  0  0  0  0  0  0  0
   18.9018   17.1106    1.3428 H   0  0  0  0  0  0  0  0  0  0  0  0
   20.2912   18.2491    1.3428 H   0  0  0  0  0  0  0  0  0  0  0  0
  2  1  2  0
  3  2  1  0
  4  3  2  0
  5  4  1  0
  6  5  2  0
  6  1  1  0
  7  6  1  0
  8  7  1  0
  9  8  1  0
  9  5  1  0
 10  7  1  0
 11 10  2  0
 12 10  1  0
 14 13  1  0
 14  1  1  0
  2 15  1  0
  3 16  1  0
  4 17  1  0
  7 18  1  6
  8 19  1  0
  8 20  1  0
  9 21  1  0
  9 22  1  0
 13 23  1  0
 13 24  1  0
 13 25  1  0
M  CHG  1  12  -1
M  END
$$$$
=
     RDKit          3D

 18 19  0  0  0  0  0  0  0  0999 V2000
   16.2960   13.9180    3.6110 C   0  0  0  0  0  0  0  0  0  0  0  0
   15.0990   14.4230    4.1510 C   0  0  0  0  0  0  0  0  0  0  0  0
   15.0690   15.6120    4.8820 C   0  0  0  0  0  0  0  0  0  0  0  0
   16.2420   16.3470    5.1050 C   0  0  0  0  0  0  0  0  0  0  0  0
   17.4590   15.8730    4.5790 C   0  0  0  0  0  0  0  0  0  0  0  0
   17.4500   14.6850    3.8560 C   0  0  0  0  0  0  0  0  0  0  0  0
   18.7450   14.4370    3.4550 N   0  0  0  0  0  0  0  0  0  0  0  0
   19.5760   15.4300    3.9000 C   0  0  0  0  0  0  0  0  0  0  0  0
   18.8070   16.3340    4.6000 C   0  0  0  0  0  0  0  0  0  0  0  0
   15.2870   12.2630    2.2320 O   0  0  0  0  0  1  0  0  0  0  0  0
   16.3610   12.6350    2.8150 C   0  0  0  0  0  0  0  0  0  0  0  0
   17.4740   12.0230    2.7840 O   0  0  0  0  0  0  0  0  0  0  0  0
   14.1631   13.8669    3.9932 H   0  0  0  0  0  0  0  0  0  0  0  0
   14.1138   15.9765    5.2878 H   0  0  0  0  0  0  0  0  0  0  0  0
   16.2119   17.2821    5.6835 H   0  0  0  0  0  0  0  0  0  0  0  0
   19.0445   13.6222    2.9006 H   0  0  0  0  0  0  0  0  0  0  0  0
   20.6608   15.4944    3.7296 H   0  0  0  0  0  0  0  0  0  0  0  0
   19.1699   17.2501    5.0889 H   0  0  0  0  0  0  0  0  0  0  0  0
  2  1  2  0
  3  2  1  0
  4  3  2  0
  5  4  1  0
  6  1  1  0
  6  5  2  0
  7  6  1  0
  8  7  1  0
  9  8  2  0
  9  5  1  0
 11 10  1  0
 11  1  1  0
 12 11  2  0
  2 13  1  0
  3 14  1  0
  4 15  1  0
  7 16  1  0
  8 17  1  0
  9 18  1  0
M  CHG  1  10  -1
M  END
$$$$
=
     RDKit          3D

 25 26  0  0  0  0  0  0  0  0999 V2000
   19.2670   15.9520    4.8130 C   0  0  0  0  0  0  0  0  0  0  0  0
   19.7910   14.9860    3.9770 C   0  0  0  0  0  0  0  0  0  0  0  0
   18.7540   14.3090    3.3990 N   0  0  0  0  0  0  0  0  0  0  0  0
   17.5510   14.8020    3.8460 C   0  0  0  0  0  0  0  0  0  0  0  0
   17.8410   15.8400    4.7310 C   0  0  0  0  0  0  0  0  0  0  0  0
   16.7700   16.5360    5.3290 C   0  0  0  0  0  0  0  0  0  0  0  0
   15.4550   16.1660    5.0260 C   0  0  0  0  0  0  0  0  0  0  0  0
   15.1970   15.1210    4.1420 C   0  0  0  0  0  0  0  0  0  0  0  0
   16.2400   14.4180    3.5320 C   0  0  0  0  0  0  0  0  0  0  0  0
   20.0420   16.9360    5.6490 C   0  0  0  0  0  0  0  0  0  0  0  0
   21.5280   16.5980    5.7300 C   0  0  1  0  0  0  0  0  0  0  0  0
   21.8400   18.7710    4.8480 O   0  0  0  0  0  1  0  0  0  0  0  0
   22.3290   17.9310    5.6690 C   0  0  0  0  0  0  0  0  0  0  0  0
   23.3290   18.0310    6.4300 O   0  0  0  0  0  0  0  0  0  0  0  0
   21.8230   15.9250    6.9860 O   0  0  0  0  0  0  0  0  0  0  0  0
   20.8605   14.7941    3.8055 H   0  0  0  0  0  0  0  0  0  0  0  0
   18.8589   13.5383    2.7238 H   0  0  0  0  0  0  0  0  0  0  0  0
   16.9667   17.3626    6.0276 H   0  0  0  0  0  0  0  0  0  0  0  0
   14.6167   16.7058    5.4906 H   0  0  0  0  0  0  0  0  0  0  0  0
   14.1557   14.8444    3.9203 H   0  0  0  0  0  0  0  0  0  0  0  0
   16.0393   13.5940    2.8315 H   0  0  0  0  0  0  0  0  0  0  0  0
   19.9324   17.9370    5.2063 H   0  0  0  0  0  0  0  0  0  0  0  0
   19.6360   16.8963    6.6706 H   0  0  0  0  0  0  0  0  0  0  0  0
   21.8046   15.9337    4.8980 H   0  0  0  0  0  0  0  0  0  0  0  0
   21.5665   16.5102    7.7422 H   0  0  0  0  0  0  0  0  0  0  0  0
  2  1  2  0
  3  2  1  0
  4  3  1  0
  5  4  2  0
  5  1  1  0
  6  5  1  0
  7  6  2  0
  8  7  1  0
  9  8  2  0
  9  4  1  0
 10  1  1  0
 11 10  1  0
 13 11  1  0
 13 12  1  0
 14 13  2  0
 15 11  1  0
  2 16  1  0
  3 17  1  0
  6 18  1  0
  7 19  1  0
  8 20  1  0
  9 21  1  0
 10 22  1  0
 10 23  1  0
 11 24  1  6
 15 25  1  0
M  CHG  1  12  -1
M  END
$$$$
=
     RDKit          3D

 36 38  0  0  0  0  0  0  0  0999 V2000
   17.8640   14.6680    3.6900 C   0  0  0  0  0  0  0  0  0  0  0  0
   17.9510   13.3360    3.2510 C   0  0  0  0  0  0  0  0  0  0  0  0
   16.8090   12.6030    2.9100 C   0  0  0  0  0  0  0  0  0  0  0  0
   15.5540   13.1970    2.9860 C   0  0  0  0  0  0  0  0  0  0  0  0
   15.4370   14.5080    3.4440 C   0  0  0  0  0  0  0  0  0  0  0  0
   16.5850   15.2360    3.7840 C   0  0  0  0  0  0  0  0  0  0  0  0
   21.1060   15.8570    5.0260 C   0  0  1  0  0  0  0  0  0  0  0  0
   19.7780   15.1700    5.2470 C   0  0  0  0  0  0  0  0  0  0  0  0
   19.0370   15.3980    4.0220 N   0  0  0  0  0  0  0  0  0  0  0  0
   19.5770   16.4880    3.3210 C   0  0  0  0  0  0  0  0  0  0  0  0
   19.1910   17.0020    2.2810 O   0  0  0  0  0  0  0  0  0  0  0  0
   20.7530   17.0130    4.1090 C   0  0  0  0  0  0  0  0  0  0  0  0
   22.5950   17.1380    6.3200 O   0  0  0  0  0  1  0  0  0  0  0  0
   21.7140   16.2340    6.3650 C   0  0  0  0  0  0  0  0  0  0  0  0
   21.2520   15.6180    7.3640 O   0  0  0  0  0  0  0  0  0  0  0  0
   14.4660   12.4200    2.6660 O   0  0  0  0  0  0  0  0  0  0  0  0
   13.2450   12.8020    3.1740 C   0  0  0  0  0  0  0  0  0  0  0  0
   13.1090   13.5460    4.3480 C   0  0  0  0  0  0  0  0  0  0  0  0
   11.8390   13.9290    4.7840 C   0  0  0  0  0  0  0  0  0  0  0  0
   10.7110   13.5830    4.0400 C   0  0  0  0  0  0  0  0  0  0  0  0
   10.8500   12.8580    2.8550 C   0  0  0  0  0  0  0  0  0  0  0  0
   12.1180   12.4740    2.4190 C   0  0  0  0  0  0  0  0  0  0  0  0
   18.9391   12.8588    3.1737 H   0  0  0  0  0  0  0  0  0  0  0  0
   16.9039   11.5574    2.5820 H   0  0  0  0  0  0  0  0  0  0  0  0
   14.4438   14.9712    3.5386 H   0  0  0  0  0  0  0  0  0  0  0  0
   16.4810   16.2744    4.1318 H   0  0  0  0  0  0  0  0  0  0  0  0
   21.8904   15.2438    4.5583 H   0  0  0  0  0  0  0  0  0  0  0  0
   19.9222   14.0930    5.4183 H   0  0  0  0  0  0  0  0  0  0  0  0
   19.2506   15.5585    6.1307 H   0  0  0  0  0  0  0  0  0  0  0  0
   20.4717   17.9041    4.6894 H   0  0  0  0  0  0  0  0  0  0  0  0
   21.5922   17.3265    3.4706 H   0  0  0  0  0  0  0  0  0  0  0  0
   13.9999   13.8295    4.9276 H   0  0  0  0  0  0  0  0  0  0  0  0
   11.7280   14.5041    5.7151 H   0  0  0  0  0  0  0  0  0  0  0  0
    9.7109   13.8817    4.3873 H   0  0  0  0  0  0  0  0  0  0  0  0
    9.9606   12.5899    2.2659 H   0  0  0  0  0  0  0  0  0  0  0  0
   12.2298   11.9124    1.4798 H   0  0  0  0  0  0  0  0  0  0  0  0
  2  1  2  0
  3  2  1  0
  4  3  2  0
  5  4  1  0
  6  5  2  0
  6  1  1  0
  8  7  1  0
  9  8  1  0
  9  1  1  0
 10  9  1  0
 11 10  2  0
 12  7  1  0
 12 10  1  0
 14  7  1  0
 14 13  1  0
 15 14  2  0
 16  4  1  0
 17 16  1  0
 18 17  2  0
 19 18  1  0
 20 19  2  0
 21 20  1  0
 22 21  2  0
 22 17  1  0
  2 23  1  0
  3 24  1  0
  5 25  1  0
  6 26  1  0
  7 27  1  6
  8 28  1  0
  8 29  1  0
 12 30  1  0
 12 31  1  0
 18 32  1  0
 19 33  1  0
 20 34  1  0
 21 35  1  0
 22 36  1  0
M  CHG  1  13  -1
M  END
$$$$
=
     RDKit          3D

 26 27  0  0  0  0  0  0  0  0999 V2000
   20.0120   16.0310    5.1380 C   0  0  0  0  0  0  0  0  0  0  0  0
   20.4840   16.7020    4.0730 N   0  0  0  0  0  0  0  0  0  0  0  0
   19.6260   16.9130    3.0570 C   0  0  0  0  0  0  0  0  0  0  0  0
   20.1440   17.6600    1.8650 C   0  0  0  0  0  0  0  0  0  0  0  0
   18.3200   16.4700    3.0870 C   0  0  0  0  0  0  0  0  0  0  0  0
   17.9260   15.7920    4.2220 C   0  0  0  0  0  0  0  0  0  0  0  0
   18.7650   15.5680    5.2500 N   0  0  0  0  0  0  0  0  0  0  0  0
   16.5690   15.2740    4.3730 C   0  0  0  0  0  0  0  0  0  0  0  0
   15.4940   15.6110    5.1760 C   0  0  0  0  0  0  0  0  0  0  0  0
   14.4450   14.7220    4.8460 C   0  0  0  0  0  0  0  0  0  0  0  0
   14.9260   13.8830    3.8580 C   0  0  0  0  0  0  0  0  0  0  0  0
   16.2240   14.2220    3.5710 O   0  0  0  0  0  0  0  0  0  0  0  0
   14.0900   12.7180    3.1790 C   0  0  0  0  0  0  0  0  0  0  0  0
   12.8440   12.6880    3.4080 O   0  0  0  0  0  0  0  0  0  0  0  0
   14.7540   11.9070    2.4580 O   0  0  0  0  0  1  0  0  0  0  0  0
   22.3740   17.0460    6.1070 C   0  0  0  0  0  0  0  0  0  0  0  0
   21.1510   15.7570    6.4740 S   0  0  0  0  0  0  0  0  0  0  0  0
   20.7406   18.5204    2.2023 H   0  0  0  0  0  0  0  0  0  0  0  0
   20.7738   16.9921    1.2590 H   0  0  0  0  0  0  0  0  0  0  0  0
   19.2977   18.0157    1.2590 H   0  0  0  0  0  0  0  0  0  0  0  0
   17.6290   16.6480    2.2499 H   0  0  0  0  0  0  0  0  0  0  0  0
   15.4616   16.4150    5.9261 H   0  0  0  0  0  0  0  0  0  0  0  0
   13.4389   14.7019    5.2903 H   0  0  0  0  0  0  0  0  0  0  0  0
   22.7655   17.4587    7.0485 H   0  0  0  0  0  0  0  0  0  0  0  0
   23.2005   16.6122    5.5250 H   0  0  0  0  0  0  0  0  0  0  0  0
   21.8974   17.8486    5.5250 H   0  0  0  0  0  0  0  0  0  0  0  0
  2  1  2  0
  3  2  1  0
  4  3  1  0
  5  3  2  0
  6  5  1  0
  7  6  2  0
  7  1  1  0
  8  6  1  0
  9  8  2  0
 10  9  1  0
 11 10  2  0
 12 11  1  0
 12  8  1  0
 13 11  1  0
 14 13  2  0
 15 13  1  0
 17  1  1  0
 17 16  1  0
  4 18  1  0
  4 19  1  0
  4 20  1  0
  5 21  1  0
  9 22  1  0
 10 23  1  0
 16 24  1  0
 16 25  1  0
 16 26  1  0
M  CHG  1  15  -1
M  END
$$$$
=
     RDKit          3D

118123  0  0  0  0  0  0  0  0999 V2000
   21.5200   27.2050   11.7890 C   0  0  2  0  0  0  0  0  0  0  0  0
   21.6690   25.6900   11.6430 C   0  0  0  0  0  0  0  0  0  0  0  0
   22.9900   25.1810   12.2010 C   0  0  2  0  0  0  0  0  0  0  0  0
   23.2140   25.5720   13.5630 O   0  0  0  0  0  0  0  0  0  0  0  0
   22.3720   26.5910   14.1150 C   0  0  1  0  0  0  0  0  0  0  0  0
   22.1590   27.7350   13.0990 C   0  0  2  0  0  0  0  0  0  0  0  0
   21.3980   28.9420   13.6590 C   0  0  0  0  0  0  0  0  0  0  0  0
   21.1180   26.0120   14.5160 O   0  0  0  0  0  0  0  0  0  0  0  0
   21.2200   25.5350   15.8750 C   0  0  1  0  0  0  0  0  0  0  0  0
   22.6380   25.8690   16.3550 C   0  0  0  0  0  0  0  0  0  0  0  0
   23.0170   27.0280   15.4440 C   0  0  1  0  0  0  0  0  0  0  0  0
   24.5160   27.2850   15.4030 C   0  0  0  0  0  0  0  0  0  0  0  0
   20.1890   26.3280   16.6960 C   0  0  0  0  0  0  0  0  0  0  0  0
   20.8670   24.0330   15.9370 C   0  0  1  0  0  0  0  0  0  0  0  0
   19.6630   23.6490   16.7810 C   0  0  0  0  0  0  0  0  0  0  0  0
   19.3350   22.2840   16.2220 C   0  0  0  0  0  0  0  0  0  0  0  0
   19.6230   22.4500   14.7160 C   0  0  1  0  0  0  0  0  0  0  0  0
   20.6200   23.4940   14.6210 O   0  0  0  0  0  0  0  0  0  0  0  0
   20.2280   21.1530   14.1730 C   0  0  0  0  0  0  0  0  0  0  0  0
   18.3350   22.8910   13.9560 C   0  0  2  0  0  0  0  0  0  0  0  0
   17.1780   22.2790   14.5800 O   0  0  0  0  0  0  0  0  0  0  0  0
   16.4330   21.5250   13.6100 C   0  0  2  0  0  0  0  0  0  0  0  0
   17.3520   21.3570   12.4060 C   0  0  0  0  0  0  0  0  0  0  0  0
   18.1890   22.6190   12.4500 C   0  0  2  0  0  0  0  0  0  0  0  0
   19.4320   22.5590   11.5810 C   0  0  0  0  0  0  0  0  0  0  0  0
   15.0990   22.2510   13.2790 C   0  0  1  0  0  0  0  0  0  0  0  0
   14.0510   21.3040   13.0470 O   0  0  0  0  0  0  0  0  0  0  0  0
   13.1850   20.9620   14.1330 C   0  0  1  0  0  0  0  0  0  0  0  0
   13.7440   21.3090   15.5220 C   0  0  1  0  0  0  0  0  0  0  0  0
   14.1430   22.7910   15.5980 C   0  0  0  0  0  0  0  0  0  0  0  0
   14.7320   23.3500   14.2950 C   0  0  2  0  0  0  0  0  0  0  0  0
   13.7760   24.3740   13.6640 C   0  0  0  0  0  0  0  0  0  0  0  0
   12.7870   20.9830   16.6750 C   0  0  0  0  0  0  0  0  0  0  0  0
   11.9570   21.6560   13.9280 O   0  0  0  0  0  0  0  0  0  0  0  0
   12.9020   19.4490   13.9700 C   0  0  0  0  0  0  0  0  0  0  0  0
   14.0570   18.7100   14.4040 O   0  0  0  0  0  0  0  0  0  0  0  0
   19.3060   26.6160   11.0930 C   0  0  0  0  0  0  0  0  0  0  0  0
   20.1400   27.5970   11.6970 O   0  0  0  0  0  0  0  0  0  0  0  0
   24.2460   25.5750   11.4020 C   0  0  0  0  0  0  0  0  0  0  0  0
   25.4990   24.7550   11.7520 C   0  0  1  0  0  0  0  0  0  0  0  0
   25.4100   23.3160   11.2300 C   0  0  0  0  0  0  0  0  0  0  0  0
   26.7110   22.5520   11.4600 C   0  0  0  0  0  0  0  0  0  0  0  0
   27.9020   23.3560   10.9340 C   0  0  1  0  0  0  0  0  0  0  0  0
   27.8930   24.8070   11.4560 C   0  0  1  0  0  0  0  0  0  0  0  0
   26.6210   25.4120   11.1480 O   0  0  0  0  0  0  0  0  0  0  0  0
   29.2290   22.6250   11.1120 C   0  0  0  0  0  0  0  0  0  0  0  0
   28.4290   25.1240   12.8710 C   0  0  1  0  0  0  0  0  0  0  0  0
   28.3280   26.6240   13.1690 C   0  0  0  0  0  0  0  0  0  0  0  0
   27.8820   24.3310   14.0730 C   0  0  0  0  0  0  0  0  0  0  0  0
   26.7830   24.7120   14.5650 O   0  0  0  0  0  0  0  0  0  0  0  0
   28.6180   23.3770   14.4570 O   0  0  0  0  0  1  0  0  0  0  0  0
   22.0693   27.6637   10.9536 H   0  0  0  0  0  0  0  0  0  0  0  0
   20.8452   25.2003   12.1830 H   0  0  0  0  0  0  0  0  0  0  0  0
   21.6444   25.4523   10.5693 H   0  0  0  0  0  0  0  0  0  0  0  0
   22.8591   24.0918   12.1205 H   0  0  0  0  0  0  0  0  0  0  0  0
   23.1632   28.1192   12.8666 H   0  0  0  0  0  0  0  0  0  0  0  0
   21.4180   28.9102   14.7584 H   0  0  0  0  0  0  0  0  0  0  0  0
   21.8747   29.8700   13.3103 H   0  0  0  0  0  0  0  0  0  0  0  0
   20.3552   28.9120   13.3103 H   0  0  0  0  0  0  0  0  0  0  0  0
   22.6405   26.1742   17.4118 H   0  0  0  0  0  0  0  0  0  0  0  0
   23.3347   25.0193   16.3040 H   0  0  0  0  0  0  0  0  0  0  0  0
   22.6592   28.0151   15.7720 H   0  0  0  0  0  0  0  0  0  0  0  0
   24.9048   27.3517   16.4298 H   0  0  0  0  0  0  0  0  0  0  0  0
   25.0153   26.4593   14.8748 H   0  0  0  0  0  0  0  0  0  0  0  0
   24.7117   28.2298   14.8748 H   0  0  0  0  0  0  0  0  0  0  0  0
   20.3820   26.1795   17.7687 H   0  0  0  0  0  0  0  0  0  0  0  0
   20.2714   27.3977   16.4532 H   0  0  0  0  0  0  0  0  0  0  0  0
   19.1763   25.9739   16.4532 H   0  0  0  0  0  0  0  0  0  0  0  0
   21.7611   23.6113   16.4195 H   0  0  0  0  0  0  0  0  0  0  0  0
   19.9201   23.5958   17.8492 H   0  0  0  0  0  0  0  0  0  0  0  0
   18.8314   24.3675   16.7339 H   0  0  0  0  0  0  0  0  0  0  0  0
   19.9787   21.5098   16.6650 H   0  0  0  0  0  0  0  0  0  0  0  0
   18.3043   21.9639   16.4344 H   0  0  0  0  0  0  0  0  0  0  0  0
   20.5284   20.5089   15.0126 H   0  0  0  0  0  0  0  0  0  0  0  0
   19.4812   20.6293   13.5581 H   0  0  0  0  0  0  0  0  0  0  0  0
   21.1091   21.3887   13.5581 H   0  0  0  0  0  0  0  0  0  0  0  0
   18.4179   23.9852   14.0327 H   0  0  0  0  0  0  0  0  0  0  0  0
   16.1364   20.5322   13.9793 H   0  0  0  0  0  0  0  0  0  0  0  0
   17.9805   20.4600   12.5083 H   0  0  0  0  0  0  0  0  0  0  0  0
   16.8106   21.2241   11.4577 H   0  0  0  0  0  0  0  0  0  0  0  0
   17.7322   23.4982   11.9722 H   0  0  0  0  0  0  0  0  0  0  0  0
   20.3253   22.5159   12.2214 H   0  0  0  0  0  0  0  0  0  0  0  0
   19.3924   21.6617   10.9459 H   0  0  0  0  0  0  0  0  0  0  0  0
   19.4790   23.4559   10.9459 H   0  0  0  0  0  0  0  0  0  0  0  0
   15.2475   22.8014   12.3382 H   0  0  0  0  0  0  0  0  0  0  0  0
   14.6299   20.6689   15.6466 H   0  0  0  0  0  0  0  0  0  0  0  0
   13.2474   23.3772   15.8515 H   0  0  0  0  0  0  0  0  0  0  0  0
   14.9317   22.8681   16.3609 H   0  0  0  0  0  0  0  0  0  0  0  0
   15.6720   23.8530   14.5660 H   0  0  0  0  0  0  0  0  0  0  0  0
   13.2572   24.9297   14.4590 H   0  0  0  0  0  0  0  0  0  0  0  0
   14.3497   25.0756   13.0406 H   0  0  0  0  0  0  0  0  0  0  0  0
   13.0367   23.8498   13.0406 H   0  0  0  0  0  0  0  0  0  0  0  0
   13.2963   21.1565   17.6344 H   0  0  0  0  0  0  0  0  0  0  0  0
   11.8995   21.6295   16.6088 H   0  0  0  0  0  0  0  0  0  0  0  0
   12.4787   19.9292   16.6088 H   0  0  0  0  0  0  0  0  0  0  0  0
   11.5558   21.8827   14.8042 H   0  0  0  0  0  0  0  0  0  0  0  0
   12.0323   19.1679   14.5820 H   0  0  0  0  0  0  0  0  0  0  0  0
   12.6883   19.2212   12.9153 H   0  0  0  0  0  0  0  0  0  0  0  0
   14.0848   18.6922   15.3935 H   0  0  0  0  0  0  0  0  0  0  0  0
   18.8057   26.0275   11.8762 H   0  0  0  0  0  0  0  0  0  0  0  0
   18.5493   27.1126   10.4678 H   0  0  0  0  0  0  0  0  0  0  0  0
   19.9179   25.9491   10.4678 H   0  0  0  0  0  0  0  0  0  0  0  0
   24.0314   25.4372   10.3320 H   0  0  0  0  0  0  0  0  0  0  0  0
   24.4701   26.6204   11.6607 H   0  0  0  0  0  0  0  0  0  0  0  0
   25.5987   24.6964   12.8459 H   0  0  0  0  0  0  0  0  0  0  0  0
   24.5939   22.7965   11.7535 H   0  0  0  0  0  0  0  0  0  0  0  0
   25.2212   23.3546   10.1470 H   0  0  0  0  0  0  0  0  0  0  0  0
   26.8413   22.3743   12.5377 H   0  0  0  0  0  0  0  0  0  0  0  0
   26.6619   21.5938   10.9221 H   0  0  0  0  0  0  0  0  0  0  0  0
   27.7850   23.4429    9.8437 H   0  0  0  0  0  0  0  0  0  0  0  0
   28.7069   25.2930   10.8980 H   0  0  0  0  0  0  0  0  0  0  0  0
   29.4420   22.5077   12.1848 H   0  0  0  0  0  0  0  0  0  0  0  0
   29.1676   21.6334   10.6398 H   0  0  0  0  0  0  0  0  0  0  0  0
   30.0343   23.2068   10.6398 H   0  0  0  0  0  0  0  0  0  0  0  0
   29.4685   24.7735   12.7905 H   0  0  0  0  0  0  0  0  0  0  0  0
   28.3174   26.7817   14.2576 H   0  0  0  0  0  0  0  0  0  0  0  0
   29.1932   27.1438   12.7316 H   0  0  0  0  0  0  0  0  0  0  0  0
   27.4009   27.0231   12.7316 H   0  0  0  0  0  0  0  0  0  0  0  0
  2  1  1  0
  3  2  1  0
  4  3  1  0
  5  4  1  6
  6  1  1  0
  6  5  1  0
  7  6  1  0
  8  5  1  0
  9  8  1  0
 10  9  1  0
 11  5  1  0
 11 10  1  0
 12 11  1  0
  9 13  1  1
 14  9  1  0
 15 14  1  0
 16 15  1  0
 17 16  1  0
 18 17  1  0
 18 14  1  0
 17 19  1  6
 20 17  1  0
 21 20  1  0
 22 21  1  0
 23 22  1  0
 24 23  1  0
 24 20  1  0
 25 24  1  0
 26 22  1  0
 27 26  1  0
 28 27  1  0
 29 28  1  0
 30 29  1  0
 31 30  1  0
 31 26  1  0
 32 31  1  0
 33 29  1  0
 28 34  1  6
 35 28  1  0
 36 35  1  0
 38 37  1  0
 38  1  1  0
 39  3  1  0
 40 39  1  0
 41 40  1  0
 42 41  1  0
 43 42  1  0
 44 43  1  0
 45 40  1  0
 45 44  1  0
 46 43  1  0
 47 44  1  0
 48 47  1  0
 49 47  1  0
 50 49  2  0
 51 49  1  0
  1 52  1  6
  2 53  1  0
  2 54  1  0
  3 55  1  1
  6 56  1  6
  7 57  1  0
  7 58  1  0
  7 59  1  0
 10 60  1  0
 10 61  1  0
 11 62  1  1
 12 63  1  0
 12 64  1  0
 12 65  1  0
 13 66  1  0
 13 67  1  0
 13 68  1  0
 14 69  1  1
 15 70  1  0
 15 71  1  0
 16 72  1  0
 16 73  1  0
 19 74  1  0
 19 75  1  0
 19 76  1  0
 20 77  1  6
 22 78  1  1
 23 79  1  0
 23 80  1  0
 24 81  1  6
 25 82  1  0
 25 83  1  0
 25 84  1  0
 26 85  1  6
 29 86  1  1
 30 87  1  0
 30 88  1  0
 31 89  1  1
 32 90  1  0
 32 91  1  0
 32 92  1  0
 33 93  1  0
 33 94  1  0
 33 95  1  0
 34 96  1  0
 35 97  1  0
 35 98  1  0
 36 99  1  0
 37100  1  0
 37101  1  0
 37102  1  0
 39103  1  0
 39104  1  0
 40105  1  1
 41106  1  0
 41107  1  0
 42108  1  0
 42109  1  0
 43110  1  6
 44111  1  6
 46112  1  0
 46113  1  0
 46114  1  0
 47115  1  6
 48116  1  0
 48117  1  0
 48118  1  0
M  CHG  1  51  -1
M  END
$$$$
=
     RDKit          3D

 33 33  0  0  0  0  0  0  0  0999 V2000
   18.3480   15.8440    4.1290 C   0  0  0  0  0  0  0  0  0  0  0  0
   18.3990   16.3150    2.9910 O   0  0  0  0  0  0  0  0  0  0  0  0
   19.4590   15.7460    4.9330 N   0  0  0  0  0  0  0  0  0  0  0  0
   19.5960   15.0570    6.2040 C   0  0  0  0  0  0  0  0  0  0  0  0
   20.9830   15.4170    6.7210 C   0  0  0  0  0  0  0  0  0  0  0  0
   21.7530   15.7940    5.4600 C   0  0  0  0  0  0  0  0  0  0  0  0
   20.6950   16.4850    4.6030 C   0  0  2  0  0  0  0  0  0  0  0  0
   20.6980   18.0060    4.9760 C   0  0  0  0  0  0  0  0  0  0  0  0
   21.7850   18.6090    4.7340 O   0  0  0  0  0  0  0  0  0  0  0  0
   19.6420   18.4510    5.5170 O   0  0  0  0  0  1  0  0  0  0  0  0
   17.0240   15.3410    4.7050 C   0  0  1  0  0  0  0  0  0  0  0  0
   16.2850   16.4860    5.4010 C   0  0  0  0  0  0  0  0  0  0  0  0
   16.1780   14.6230    3.6340 C   0  0  0  0  0  0  0  0  0  0  0  0
   14.4490   14.2120    4.0680 S   0  0  0  0  0  0  0  0  0  0  0  0
   12.8230   12.4150    2.7530 C   0  0  0  0  0  0  0  0  0  0  0  0
   14.2470   12.7980    3.0360 C   0  0  0  0  0  0  0  0  0  0  0  0
   15.2150   12.1260    2.6960 O   0  0  0  0  0  0  0  0  0  0  0  0
   18.8236   15.3968    6.9096 H   0  0  0  0  0  0  0  0  0  0  0  0
   19.4745   13.9696    6.0913 H   0  0  0  0  0  0  0  0  0  0  0  0
   20.9333   16.2660    7.4186 H   0  0  0  0  0  0  0  0  0  0  0  0
   21.4559   14.5957    7.2794 H   0  0  0  0  0  0  0  0  0  0  0  0
   22.5816   16.4789    5.6930 H   0  0  0  0  0  0  0  0  0  0  0  0
   22.2169   14.9300    4.9617 H   0  0  0  0  0  0  0  0  0  0  0  0
   20.8460   16.4653    3.5136 H   0  0  0  0  0  0  0  0  0  0  0  0
   17.2300   14.5799    5.4720 H   0  0  0  0  0  0  0  0  0  0  0  0
   16.3637   16.3640    6.4914 H   0  0  0  0  0  0  0  0  0  0  0  0
   16.7346   17.4456    5.1060 H   0  0  0  0  0  0  0  0  0  0  0  0
   15.2254   16.4715    5.1060 H   0  0  0  0  0  0  0  0  0  0  0  0
   16.1507   15.2708    2.7454 H   0  0  0  0  0  0  0  0  0  0  0  0
   16.6717   13.6508    3.4889 H   0  0  0  0  0  0  0  0  0  0  0  0
   12.2865   12.2707    3.7024 H   0  0  0  0  0  0  0  0  0  0  0  0
   12.3364   13.2142    2.1746 H   0  0  0  0  0  0  0  0  0  0  0  0
   12.8029   11.4795    2.1746 H   0  0  0  0  0  0  0  0  0  0  0  0
  2  1  2  0
  3  1  1  0
  4  3  1  0
  5  4  1  0
  6  5  1  0
  7  3  1  0
  7  6  1  0
  8  7  1  0
  9  8  2  0
 10  8  1  0
 11  1  1  0
 12 11  1  0
 13 11  1  0
 14 13  1  0
 16 15  1  0
 16 14  1  0
 17 16  2  0
  4 18  1  0
  4 19  1  0
  5 20  1  0
  5 21  1  0
  6 22  1  0
  6 23  1  0
  7 24  1  6
 11 25  1  1
 12 26  1  0
 12 27  1  0
 12 28  1  0
 13 29  1  0
 13 30  1  0
 15 31  1  0
 15 32  1  0
 15 33  1  0
M  CHG  1  10  -1
M  END
$$$$
=
     RDKit          3D

 38 39  0  0  0  0  0  0  0  0999 V2000
   25.9970   27.0210   15.3700 O   0  0  0  0  0  0  0  0  0  0  0  0
   27.1300   26.8350   14.9390 C   0  0  0  0  0  0  0  0  0  0  0  0
   27.4290   26.0040   13.8870 N   0  0  0  0  0  0  0  0  0  0  0  0
   26.4460   25.1260   13.2850 C   0  0  2  0  0  0  0  0  0  0  0  0
   27.2700   24.0060   12.6380 C   0  0  0  0  0  0  0  0  0  0  0  0
   28.6240   24.6600   12.3610 C   0  0  0  0  0  0  0  0  0  0  0  0
   28.8090   25.5940   13.5560 C   0  0  2  0  0  0  0  0  0  0  0  0
   29.5900   24.8050   14.6540 C   0  0  0  0  0  0  0  0  0  0  0  0
   30.7550   25.2460   14.8880 O   0  0  0  0  0  0  0  0  0  0  0  0
   28.9980   23.8080   15.1600 O   0  0  0  0  0  1  0  0  0  0  0  0
   25.6580   25.8870   12.2460 C   0  0  0  0  0  0  0  0  0  0  0  0
   24.5140   25.2210   11.5190 C   0  0  0  0  0  0  0  0  0  0  0  0
   24.2350   26.3110   12.5140 C   0  0  0  0  0  0  0  0  0  0  0  0
   28.2410   27.4560   15.4140 O   0  0  0  0  0  0  0  0  0  0  0  0
   28.4150   28.8840   15.2890 C   0  0  0  0  0  0  0  0  0  0  0  0
   28.1780   29.3520   13.8490 C   0  0  0  0  0  0  0  0  0  0  0  0
   27.5390   29.6450   16.2910 C   0  0  0  0  0  0  0  0  0  0  0  0
   29.8890   29.1280   15.6480 C   0  0  0  0  0  0  0  0  0  0  0  0
   25.7210   24.7292   14.0109 H   0  0  0  0  0  0  0  0  0  0  0  0
   27.3800   23.1539   13.3250 H   0  0  0  0  0  0  0  0  0  0  0  0
   26.7991   23.6032   11.7291 H   0  0  0  0  0  0  0  0  0  0  0  0
   29.4251   23.9073   12.3204 H   0  0  0  0  0  0  0  0  0  0  0  0
   28.6618   25.1827   11.3939 H   0  0  0  0  0  0  0  0  0  0  0  0
   29.4097   26.5020   13.3989 H   0  0  0  0  0  0  0  0  0  0  0  0
   26.5799   26.4063   11.9454 H   0  0  0  0  0  0  0  0  0  0  0  0
   24.3635   25.4054   10.4451 H   0  0  0  0  0  0  0  0  0  0  0  0
   24.1755   24.1825   11.3886 H   0  0  0  0  0  0  0  0  0  0  0  0
   23.8799   27.2930   12.1681 H   0  0  0  0  0  0  0  0  0  0  0  0
   23.6074   26.3998   13.4130 H   0  0  0  0  0  0  0  0  0  0  0  0
   27.6811   30.3333   13.8595 H   0  0  0  0  0  0  0  0  0  0  0  0
   29.1427   29.4351   13.3270 H   0  0  0  0  0  0  0  0  0  0  0  0
   27.5402   28.6235   13.3270 H   0  0  0  0  0  0  0  0  0  0  0  0
   27.8412   29.3825   17.3156 H   0  0  0  0  0  0  0  0  0  0  0  0
   27.6627   30.7273   16.1382 H   0  0  0  0  0  0  0  0  0  0  0  0
   26.4846   29.3712   16.1382 H   0  0  0  0  0  0  0  0  0  0  0  0
   30.0017   29.1467   16.7421 H   0  0  0  0  0  0  0  0  0  0  0  0
   30.5069   28.3199   15.2295 H   0  0  0  0  0  0  0  0  0  0  0  0
   30.2136   30.0921   15.2295 H   0  0  0  0  0  0  0  0  0  0  0  0
  2  1  2  0
  3  2  1  0
  4  3  1  0
  5  4  1  0
  6  5  1  0
  7  6  1  0
  7  3  1  0
  8  7  1  0
  9  8  2  0
 10  8  1  0
 11  4  1  0
 12 11  1  0
 13 12  1  0
 13 11  1  0
 14  2  1  0
 15 14  1  0
 16 15  1  0
 17 15  1  0
 18 15  1  0
  4 19  1  1
  5 20  1  0
  5 21  1  0
  6 22  1  0
  6 23  1  0
  7 24  1  6
 11 25  1  0
 12 26  1  0
 12 27  1  0
 13 28  1  0
 13 29  1  0
 16 30  1  0
 16 31  1  0
 16 32  1  0
 17 33  1  0
 17 34  1  0
 17 35  1  0
 18 36  1  0
 18 37  1  0
 18 38  1  0
M  CHG  1  10  -1
M  END
$$$$
=
     RDKit          3D

 30 31  0  0  0  0  0  0  0  0999 V2000
   16.1730   15.5600    4.5700 C   0  0  1  0  0  0  0  0  0  0  0  0
   16.4170   15.9090    6.0300 C   0  0  0  0  0  0  0  0  0  0  0  0
   17.8690   16.3160    6.0020 C   0  0  0  0  0  0  0  0  0  0  0  0
   18.4570   15.2970    5.0380 C   0  0  1  0  0  0  0  0  0  0  0  0
   17.4070   14.9630    4.1030 O   0  0  0  0  0  0  0  0  0  0  0  0
   19.7210   15.7940    4.3170 C   0  0  0  0  0  0  0  0  0  0  0  0
   20.0700   17.1200    4.7680 O   0  0  0  0  0  0  0  0  0  0  0  0
   20.4520   17.8080    3.5840 C   0  0  0  0  0  0  0  0  0  0  0  0
   19.5530   17.2050    2.5430 C   0  0  0  0  0  0  0  0  0  0  0  0
   19.5260   15.8220    2.8880 O   0  0  0  0  0  0  0  0  0  0  0  0
   15.0230   14.5820    4.3260 C   0  0  0  0  0  0  0  0  0  0  0  0
   15.0500   13.8940    2.9660 C   0  0  0  0  0  0  0  0  0  0  0  0
   16.4110   12.0210    2.5140 O   0  0  0  0  0  1  0  0  0  0  0  0
   15.3790   12.4120    3.1230 C   0  0  0  0  0  0  0  0  0  0  0  0
   14.5720   11.7650    3.8490 O   0  0  0  0  0  0  0  0  0  0  0  0
   15.8824   16.4772    4.0369 H   0  0  0  0  0  0  0  0  0  0  0  0
   15.7732   16.7384    6.3581 H   0  0  0  0  0  0  0  0  0  0  0  0
   16.1935   15.0909    6.7306 H   0  0  0  0  0  0  0  0  0  0  0  0
   17.9905   17.3419    5.6242 H   0  0  0  0  0  0  0  0  0  0  0  0
   18.3496   16.3234    6.9914 H   0  0  0  0  0  0  0  0  0  0  0  0
   18.7950   14.4124    5.5976 H   0  0  0  0  0  0  0  0  0  0  0  0
   20.5354   15.0940    4.5553 H   0  0  0  0  0  0  0  0  0  0  0  0
   20.2766   18.8896    3.6804 H   0  0  0  0  0  0  0  0  0  0  0  0
   21.5214   17.7061    3.3473 H   0  0  0  0  0  0  0  0  0  0  0  0
   18.5450   17.6425    2.5928 H   0  0  0  0  0  0  0  0  0  0  0  0
   19.9056   17.3839    1.5165 H   0  0  0  0  0  0  0  0  0  0  0  0
   15.0629   13.8052    5.1038 H   0  0  0  0  0  0  0  0  0  0  0  0
   14.0979   15.1765    4.3553 H   0  0  0  0  0  0  0  0  0  0  0  0
   14.0645   13.9974    2.4884 H   0  0  0  0  0  0  0  0  0  0  0  0
   15.8244   14.3663    2.3438 H   0  0  0  0  0  0  0  0  0  0  0  0
  2  1  1  0
  3  2  1  0
  4  3  1  0
  5  1  1  0
  5  4  1  0
  6  4  1  0
  7  6  1  0
  8  7  1  0
  9  8  1  0
 10  6  1  0
 10  9  1  0
 11  1  1  0
 12 11  1  0
 14 12  1  0
 14 13  1  0
 15 14  2  0
  1 16  1  6
  2 17  1  0
  2 18  1  0
  3 19  1  0
  3 20  1  0
  4 21  1  1
  6 22  1  0
  8 23  1  0
  8 24  1  0
  9 25  1  0
  9 26  1  0
 11 27  1  0
 11 28  1  0
 12 29  1  0
 12 30  1  0
M  CHG  1  13  -1
M  END
$$$$
=
     RDKit          3D

 39 40  0  0  0  0  0  0  0  0999 V2000
   14.2470   14.3600    4.4080 C   0  0  2  0  0  0  0  0  0  0  0  0
   14.4280   15.8720    4.5520 C   0  0  0  0  0  0  0  0  0  0  0  0
   15.8850   16.0480    4.9270 C   0  0  0  0  0  0  0  0  0  0  0  0
   16.5700   14.7830    4.4450 N   0  0  1  0  0  4  0  0  0  0  0  0
   15.5300   13.9720    3.7120 C   0  0  0  0  0  0  0  0  0  0  0  0
   12.9770   13.9600    3.6480 C   0  0  2  0  0  0  0  0  0  0  0  0
   11.8750   14.0750    4.7150 C   0  0  0  0  0  0  0  0  0  0  0  0
   12.0650   13.3920    5.7570 O   0  0  0  0  0  0  0  0  0  0  0  0
   10.9780   14.9140    4.4340 O   0  0  0  0  0  1  0  0  0  0  0  0
   11.6940   12.1530    2.3880 C   0  0  0  0  0  0  0  0  0  0  0  0
   12.9900   12.5280    3.0960 C   0  0  0  0  0  0  0  0  0  0  0  0
   17.8350   14.9850    3.6790 C   0  0  0  0  0  0  0  0  0  0  0  0
   19.0040   15.3110    4.5700 C   0  0  0  0  0  0  0  0  0  0  0  0
   19.2300   14.5870    5.7500 C   0  0  0  0  0  0  0  0  0  0  0  0
   20.3320   14.8730    6.5560 C   0  0  0  0  0  0  0  0  0  0  0  0
   21.2200   15.8830    6.1920 C   0  0  0  0  0  0  0  0  0  0  0  0
   21.0070   16.6110    5.0230 C   0  0  0  0  0  0  0  0  0  0  0  0
   19.9060   16.3280    4.2140 C   0  0  0  0  0  0  0  0  0  0  0  0
   14.0924   13.8382    5.3640 H   0  0  0  0  0  0  0  0  0  0  0  0
   14.2070   16.3818    3.6027 H   0  0  0  0  0  0  0  0  0  0  0  0
   13.7490   16.3040    5.3018 H   0  0  0  0  0  0  0  0  0  0  0  0
   16.3088   16.9316    4.4273 H   0  0  0  0  0  0  0  0  0  0  0  0
   16.0176   16.2036    6.0078 H   0  0  0  0  0  0  0  0  0  0  0  0
   16.9220   14.2650    5.2627 H   0  0  0  0  0  0  0  0  0  0  0  0
   15.7249   12.8942    3.8135 H   0  0  0  0  0  0  0  0  0  0  0  0
   15.5123   14.1653    2.6293 H   0  0  0  0  0  0  0  0  0  0  0  0
   12.8483   14.5983    2.7614 H   0  0  0  0  0  0  0  0  0  0  0  0
   10.9192   11.9288    3.1359 H   0  0  0  0  0  0  0  0  0  0  0  0
   11.3639   12.9925    1.7585 H   0  0  0  0  0  0  0  0  0  0  0  0
   11.8632   11.2670    1.7585 H   0  0  0  0  0  0  0  0  0  0  0  0
   13.1473   11.8310    3.9323 H   0  0  0  0  0  0  0  0  0  0  0  0
   13.8003   12.4677    2.3545 H   0  0  0  0  0  0  0  0  0  0  0  0
   18.0616   14.0632    3.1232 H   0  0  0  0  0  0  0  0  0  0  0  0
   17.6828   15.8388    3.0024 H   0  0  0  0  0  0  0  0  0  0  0  0
   18.5330   13.7877    6.0420 H   0  0  0  0  0  0  0  0  0  0  0  0
   20.5001   14.3004    7.4801 H   0  0  0  0  0  0  0  0  0  0  0  0
   22.0896   16.1059    6.8277 H   0  0  0  0  0  0  0  0  0  0  0  0
   21.7076   17.4096    4.7377 H   0  0  0  0  0  0  0  0  0  0  0  0
   19.7430   16.9047    3.2916 H   0  0  0  0  0  0  0  0  0  0  0  0
  2  1  1  0
  3  2  1  0
  4  3  1  0
  5  1  1  0
  5  4  1  0
  6  1  1  0
  7  6  1  0
  8  7  2  0
  9  7  1  0
 11 10  1  0
 11  6  1  0
 12  4  1  0
 13 12  1  0
 14 13  2  0
 15 14  1  0
 16 15  2  0
 17 16  1  0
 18 13  1  0
 18 17  2  0
  1 19  1  1
  2 20  1  0
  2 21  1  0
  3 22  1  0
  3 23  1  0
  4 24  1  1
  5 25  1  0
  5 26  1  0
  6 27  1  6
 10 28  1  0
 10 29  1  0
 10 30  1  0
 11 31  1  0
 11 32  1  0
 12 33  1  0
 12 34  1  0
 14 35  1  0
 15 36  1  0
 16 37  1  0
 17 38  1  0
 18 39  1  0
M  CHG  2   4   1   9  -1
M  END
$$$$
=
     RDKit          3D

 46 47  0  0  0  0  0  0  0  0999 V2000
   19.2340   13.8860    3.1350 O   0  0  0  0  0  0  0  0  0  0  0  0
   18.0390   13.7610    3.4020 C   0  0  0  0  0  0  0  0  0  0  0  0
   17.3350   14.6160    4.2020 N   0  0  0  0  0  0  0  0  0  0  0  0
   17.8570   15.8690    4.7830 C   0  0  1  0  0  0  0  0  0  0  0  0
   16.7110   16.7280    5.4090 C   0  0  0  0  0  0  0  0  0  0  0  0
   17.1220   17.6150    6.2250 O   0  0  0  0  0  0  0  0  0  0  0  0
   15.5320   16.4440    5.0600 O   0  0  0  0  0  1  0  0  0  0  0  0
   19.0080   15.6450    5.7750 C   0  0  0  0  0  0  0  0  0  0  0  0
   20.2270   16.5200    5.5600 C   0  0  0  0  0  0  0  0  0  0  0  0
   21.3910   16.3200    6.3160 C   0  0  0  0  0  0  0  0  0  0  0  0
   22.5090   17.1330    6.1250 C   0  0  0  0  0  0  0  0  0  0  0  0
   22.4640   18.1510    5.1800 C   0  0  0  0  0  0  0  0  0  0  0  0
   21.3190   18.3670    4.4190 C   0  0  0  0  0  0  0  0  0  0  0  0
   20.2040   17.5500    4.6090 C   0  0  0  0  0  0  0  0  0  0  0  0
   23.5710   18.9340    5.0260 O   0  0  0  0  0  0  0  0  0  0  0  0
   17.2030   12.5970    2.8720 C   0  0  0  0  0  0  0  0  0  0  0  0
   15.8620   13.0560    2.5790 N   0  0  0  0  0  0  0  0  0  0  0  0
   14.7530   12.4990    3.1210 C   0  0  0  0  0  0  0  0  0  0  0  0
   14.7490   11.5850    3.9310 O   0  0  0  0  0  0  0  0  0  0  0  0
   13.6580   13.1200    2.6250 O   0  0  0  0  0  0  0  0  0  0  0  0
   12.6700   13.4970    3.5900 C   0  0  0  0  0  0  0  0  0  0  0  0
   11.3030   13.0910    3.1030 C   0  0  0  0  0  0  0  0  0  0  0  0
   10.1650   13.7940    3.5230 C   0  0  0  0  0  0  0  0  0  0  0  0
    8.8950   13.4080    3.0910 C   0  0  0  0  0  0  0  0  0  0  0  0
    8.7500   12.3120    2.2430 C   0  0  0  0  0  0  0  0  0  0  0  0
    9.8730   11.5980    1.8300 C   0  0  0  0  0  0  0  0  0  0  0  0
   11.1440   11.9820    2.2620 C   0  0  0  0  0  0  0  0  0  0  0  0
   16.3594   14.3658    4.4176 H   0  0  0  0  0  0  0  0  0  0  0  0
   18.2890   16.4387    3.9470 H   0  0  0  0  0  0  0  0  0  0  0  0
   18.6258   15.8375    6.7883 H   0  0  0  0  0  0  0  0  0  0  0  0
   19.3455   14.6094    5.6210 H   0  0  0  0  0  0  0  0  0  0  0  0
   21.4231   15.5157    7.0657 H   0  0  0  0  0  0  0  0  0  0  0  0
   23.4203   16.9691    6.7188 H   0  0  0  0  0  0  0  0  0  0  0  0
   21.2932   19.1755    3.6736 H   0  0  0  0  0  0  0  0  0  0  0  0
   19.2984   17.7156    4.0070 H   0  0  0  0  0  0  0  0  0  0  0  0
   23.5700   19.6674    4.3610 H   0  0  0  0  0  0  0  0  0  0  0  0
   17.6639   12.2034    1.9541 H   0  0  0  0  0  0  0  0  0  0  0  0
   17.1594   11.8029    3.6319 H   0  0  0  0  0  0  0  0  0  0  0  0
   15.7455   13.8445    1.9266 H   0  0  0  0  0  0  0  0  0  0  0  0
   12.8818   12.9947    4.5454 H   0  0  0  0  0  0  0  0  0  0  0  0
   12.6970   14.5875    3.7318 H   0  0  0  0  0  0  0  0  0  0  0  0
   10.2737   14.6559    4.1978 H   0  0  0  0  0  0  0  0  0  0  0  0
    8.0082   13.9694    3.4202 H   0  0  0  0  0  0  0  0  0  0  0  0
    7.7494   12.0105    1.8997 H   0  0  0  0  0  0  0  0  0  0  0  0
    9.7581   10.7309    1.1629 H   0  0  0  0  0  0  0  0  0  0  0  0
   12.0265   11.4098    1.9398 H   0  0  0  0  0  0  0  0  0  0  0  0
  2  1  2  0
  3  2  1  0
  4  3  1  0
  5  4  1  0
  6  5  2  0
  7  5  1  0
  8  4  1  0
  9  8  1  0
 10  9  2  0
 11 10  1  0
 12 11  2  0
 13 12  1  0
 14 13  2  0
 14  9  1  0
 15 12  1  0
 16  2  1  0
 17 16  1  0
 18 17  1  0
 19 18  2  0
 20 18  1  0
 21 20  1  0
 22 21  1  0
 23 22  2  0
 24 23  1  0
 25 24  2  0
 26 25  1  0
 27 26  2  0
 27 22  1  0
  3 28  1  0
  4 29  1  6
  8 30  1  0
  8 31  1  0
 10 32  1  0
 11 33  1  0
 13 34  1  0
 14 35  1  0
 15 36  1  0
 16 37  1  0
 16 38  1  0
 17 39  1  0
 21 40  1  0
 21 41  1  0
 23 42  1  0
 24 43  1  0
 25 44  1  0
 26 45  1  0
 27 46  1  0
M  CHG  1   7  -1
M  END
$$$$
=
     RDKit          3D

 34 33  0  0  0  0  0  0  0  0999 V2000
   19.8960   14.7170    3.5170 O   0  0  0  0  0  0  0  0  0  0  0  0
   19.7010   15.4900    4.4430 C   0  0  0  0  0  0  0  0  0  0  0  0
   18.5780   15.5360    5.2020 N   0  0  0  0  0  0  0  0  0  0  0  0
   20.5570   16.4490    4.8690 O   0  0  0  0  0  0  0  0  0  0  0  0
   20.4050   17.8230    4.4390 C   0  0  0  0  0  0  0  0  0  0  0  0
   19.5460   17.9200    3.1720 C   0  0  0  0  0  0  0  0  0  0  0  0
   19.8620   18.7060    5.5670 C   0  0  0  0  0  0  0  0  0  0  0  0
   21.8310   18.2850    4.1000 C   0  0  0  0  0  0  0  0  0  0  0  0
   17.3770   14.7890    4.8830 C   0  0  0  0  0  0  0  0  0  0  0  0
   16.0970   15.6260    5.1160 C   0  0  2  0  0  0  0  0  0  0  0  0
   16.5010   17.0780    5.4000 C   0  0  0  0  0  0  0  0  0  0  0  0
   15.4590   15.0950    6.2940 O   0  0  0  0  0  0  0  0  0  0  0  0
   15.1560   15.5110    3.9080 C   0  0  0  0  0  0  0  0  0  0  0  0
   14.0200   14.5230    4.1450 C   0  0  0  0  0  0  0  0  0  0  0  0
   12.9060   15.0570    4.4280 O   0  0  0  0  0  0  0  0  0  0  0  0
   14.3280   13.3060    4.0340 O   0  0  0  0  0  1  0  0  0  0  0  0
   18.5783   16.1291    6.0441 H   0  0  0  0  0  0  0  0  0  0  0  0
   18.4894   18.0393    3.4536 H   0  0  0  0  0  0  0  0  0  0  0  0
   19.8671   18.7876    2.5769 H   0  0  0  0  0  0  0  0  0  0  0  0
   19.6655   17.0027    2.5769 H   0  0  0  0  0  0  0  0  0  0  0  0
   20.1320   18.2669    6.5387 H   0  0  0  0  0  0  0  0  0  0  0  0
   20.2971   19.7130    5.4861 H   0  0  0  0  0  0  0  0  0  0  0  0
   18.7670   18.7721    5.4861 H   0  0  0  0  0  0  0  0  0  0  0  0
   22.3888   18.4657    5.0307 H   0  0  0  0  0  0  0  0  0  0  0  0
   22.3392   17.5056    3.5133 H   0  0  0  0  0  0  0  0  0  0  0  0
   21.7856   19.2144    3.5133 H   0  0  0  0  0  0  0  0  0  0  0  0
   17.4166   14.4868    3.8261 H   0  0  0  0  0  0  0  0  0  0  0  0
   17.3355   13.9118    5.5455 H   0  0  0  0  0  0  0  0  0  0  0  0
   16.5461   17.2401    6.4871 H   0  0  0  0  0  0  0  0  0  0  0  0
   17.4886   17.2769    4.9583 H   0  0  0  0  0  0  0  0  0  0  0  0
   15.7581   17.7584    4.9583 H   0  0  0  0  0  0  0  0  0  0  0  0
   15.8993   15.4615    7.1014 H   0  0  0  0  0  0  0  0  0  0  0  0
   14.7246   16.5016    3.7013 H   0  0  0  0  0  0  0  0  0  0  0  0
   15.7478   15.1421    3.0573 H   0  0  0  0  0  0  0  0  0  0  0  0
  2  1  2  0
  3  2  1  0
  4  2  1  0
  5  4  1  0
  6  5  1  0
  7  5  1  0
  8  5  1  0
  9  3  1  0
 10  9  1  0
 11 10  1  0
 10 12  1  1
 13 10  1  0
 14 13  1  0
 15 14  2  0
 16 14  1  0
  3 17  1  0
  6 18  1  0
  6 19  1  0
  6 20  1  0
  7 21  1  0
  7 22  1  0
  7 23  1  0
  8 24  1  0
  8 25  1  0
  8 26  1  0
  9 27  1  0
  9 28  1  0
 11 29  1  0
 11 30  1  0
 11 31  1  0
 12 32  1  0
 13 33  1  0
 13 34  1  0
M  CHG  1  16  -1
M  END
$$$$
=
     RDKit          3D

 29 30  0  0  0  0  0  0  0  0999 V2000
   17.0560   15.0720    4.2610 C   0  0  0  0  0  0  0  0  0  0  0  0
   17.2090   15.9200    5.3670 C   0  0  0  0  0  0  0  0  0  0  0  0
   18.4660   16.1190    5.9470 C   0  0  0  0  0  0  0  0  0  0  0  0
   19.6080   15.4830    5.4390 C   0  0  0  0  0  0  0  0  0  0  0  0
   19.4520   14.6400    4.3290 C   0  0  0  0  0  0  0  0  0  0  0  0
   18.1970   14.4380    3.7470 C   0  0  0  0  0  0  0  0  0  0  0  0
   12.5080   12.1210    3.4990 O   0  0  0  0  0  0  0  0  0  0  0  0
   13.4670   12.8840    3.6190 C   0  0  0  0  0  0  0  0  0  0  0  0
   13.2800   14.3110    4.0850 C   0  0  0  0  0  0  0  0  0  0  0  0
   14.5820   14.8570    4.6560 C   0  0  0  0  0  0  0  0  0  0  0  0
   15.7080   14.8430    3.6040 C   0  0  0  0  0  0  0  0  0  0  0  0
   15.6770   13.5850    2.7080 C   0  0  0  0  0  0  0  0  0  0  0  0
   14.8790   12.4330    3.3090 C   0  0  0  0  0  0  0  0  0  0  0  0
   20.9700   15.7020    6.0700 C   0  0  0  0  0  0  0  0  0  0  0  0
   21.8970   16.1320    5.3130 O   0  0  0  0  0  0  0  0  0  0  0  0
   21.0830   15.4400    7.3090 O   0  0  0  0  0  1  0  0  0  0  0  0
   16.3304   16.4346    5.7833 H   0  0  0  0  0  0  0  0  0  0  0  0
   18.5605   16.7859    6.8167 H   0  0  0  0  0  0  0  0  0  0  0  0
   20.3314   14.1295    3.9095 H   0  0  0  0  0  0  0  0  0  0  0  0
   18.1031   13.7737    2.8753 H   0  0  0  0  0  0  0  0  0  0  0  0
   12.9688   14.9329    3.2327 H   0  0  0  0  0  0  0  0  0  0  0  0
   12.5092   14.3325    4.8694 H   0  0  0  0  0  0  0  0  0  0  0  0
   14.4192   15.8917    4.9920 H   0  0  0  0  0  0  0  0  0  0  0  0
   14.8864   14.2164    5.4968 H   0  0  0  0  0  0  0  0  0  0  0  0
   15.5310   15.6830    2.9162 H   0  0  0  0  0  0  0  0  0  0  0  0
   15.2251   13.8558    1.7423 H   0  0  0  0  0  0  0  0  0  0  0  0
   16.7153   13.2386    2.5986 H   0  0  0  0  0  0  0  0  0  0  0  0
   14.8456   11.6001    2.5912 H   0  0  0  0  0  0  0  0  0  0  0  0
   15.3649   12.1055    4.2399 H   0  0  0  0  0  0  0  0  0  0  0  0
  2  1  2  0
  3  2  1  0
  4  3  2  0
  5  4  1  0
  6  5  2  0
  6  1  1  0
  8  7  2  0
  9  8  1  0
 10  9  1  0
 11 10  1  0
 11  1  1  0
 12 11  1  0
 13 12  1  0
 13  8  1  0
 14  4  1  0
 15 14  2  0
 16 14  1  0
  2 17  1  0
  3 18  1  0
  5 19  1  0
  6 20  1  0
  9 21  1  0
  9 22  1  0
 10 23  1  0
 10 24  1  0
 11 25  1  0
 12 26  1  0
 12 27  1  0
 13 28  1  0
 13 29  1  0
M  CHG  1  16  -1
M  END
$$$$
=
     RDKit          3D

 36 38  0  0  0  0  0  0  0  0999 V2000
   19.0690   16.3180    4.6870 C   0  0  0  0  0  0  0  0  0  0  0  0
   19.2240   17.5100    5.4110 C   0  0  0  0  0  0  0  0  0  0  0  0
   18.1170   18.1950    5.9350 C   0  0  0  0  0  0  0  0  0  0  0  0
   18.3210   19.4500    6.7290 C   0  0  0  0  0  0  0  0  0  0  0  0
   16.8430   17.6570    5.7590 C   0  0  0  0  0  0  0  0  0  0  0  0
   16.6980   16.4570    5.0610 C   0  0  0  0  0  0  0  0  0  0  0  0
   17.7910   15.7590    4.5270 C   0  0  0  0  0  0  0  0  0  0  0  0
   17.4900   14.5080    3.8430 C   0  0  0  0  0  0  0  0  0  0  0  0
   18.4560   13.5560    3.2210 C   0  0  0  0  0  0  0  0  0  0  0  0
   17.5840   12.3220    2.9530 C   0  0  0  0  0  0  0  0  0  0  0  0
   16.1320   12.8020    2.9630 C   0  0  0  0  0  0  0  0  0  0  0  0
   16.2320   14.0850    3.7060 C   0  0  0  0  0  0  0  0  0  0  0  0
   15.0760   14.8090    4.2330 C   0  0  0  0  0  0  0  0  0  0  0  0
   13.9290   14.4050    4.0810 O   0  0  0  0  0  0  0  0  0  0  0  0
   15.3700   15.9820    4.9190 O   0  0  0  0  0  0  0  0  0  0  0  0
   20.1410   15.6350    4.1740 O   0  0  0  0  0  0  0  0  0  0  0  0
   21.1920   15.2830    5.1040 C   0  0  2  0  0  0  0  0  0  0  0  0
   20.5130   14.8390    6.3940 C   0  0  0  0  0  0  0  0  0  0  0  0
   22.3620   16.6930    6.6220 O   0  0  0  0  0  1  0  0  0  0  0  0
   22.0950   16.5140    5.3940 C   0  0  0  0  0  0  0  0  0  0  0  0
   22.4450   17.2140    4.4000 O   0  0  0  0  0  0  0  0  0  0  0  0
   20.2338   17.9157    5.5711 H   0  0  0  0  0  0  0  0  0  0  0  0
   18.2828   19.2148    7.8029 H   0  0  0  0  0  0  0  0  0  0  0  0
   19.3015   19.8840    6.4834 H   0  0  0  0  0  0  0  0  0  0  0  0
   17.5285   20.1722    6.4834 H   0  0  0  0  0  0  0  0  0  0  0  0
   15.9609   18.1730    6.1661 H   0  0  0  0  0  0  0  0  0  0  0  0
   18.8674   13.9624    2.2853 H   0  0  0  0  0  0  0  0  0  0  0  0
   19.3308   13.3446    3.8534 H   0  0  0  0  0  0  0  0  0  0  0  0
   17.8330   11.8867    1.9740 H   0  0  0  0  0  0  0  0  0  0  0  0
   17.7503   11.5459    3.7146 H   0  0  0  0  0  0  0  0  0  0  0  0
   15.7572   12.9608    1.9411 H   0  0  0  0  0  0  0  0  0  0  0  0
   15.4319   12.0834    3.4141 H   0  0  0  0  0  0  0  0  0  0  0  0
   21.8247   14.4862    4.6860 H   0  0  0  0  0  0  0  0  0  0  0  0
   21.0844   15.2126    7.2565 H   0  0  0  0  0  0  0  0  0  0  0  0
   19.4907   15.2436    6.4283 H   0  0  0  0  0  0  0  0  0  0  0  0
   20.4738   13.7402    6.4283 H   0  0  0  0  0  0  0  0  0  0  0  0
  2  1  2  0
  3  2  1  0
  4  3  1  0
  5  3  2  0
  6  5  1  0
  7  1  1  0
  7  6  2  0
  8  7  1  0
  9  8  1  0
 10  9  1  0
 11 10  1  0
 12 11  1  0
 12  8  2  0
 13 12  1  0
 14 13  2  0
 15 13  1  0
 15  6  1  0
 16  1  1  0
 17 16  1  0
 18 17  1  0
 20 17  1  0
 20 19  1  0
 21 20  2  0
  2 22  1  0
  4 23  1  0
  4 24  1  0
  4 25  1  0
  5 26  1  0
  9 27  1  0
  9 28  1  0
 10 29  1  0
 10 30  1  0
 11 31  1  0
 11 32  1  0
 17 33  1  6
 18 34  1  0
 18 35  1  0
 18 36  1  0
M  CHG  1  19  -1
M  END
$$$$
=
     RDKit          3D

 32 33  0  0  0  0  0  0  0  0999 V2000
   15.2310   13.7520    3.9390 C   0  0  2  0  0  0  0  0  0  0  0  0
   14.3540   14.8680    4.5120 C   0  0  0  0  0  0  0  0  0  0  0  0
   15.1640   16.1210    4.8500 C   0  0  0  0  0  0  0  0  0  0  0  0
   16.6090   15.7750    5.1900 C   0  0  0  0  0  0  0  0  0  0  0  0
   17.2840   15.1570    4.0250 N   0  0  0  0  0  0  0  0  0  0  0  0
   16.3960   14.3270    3.1440 C   0  0  0  0  0  0  0  0  0  0  0  0
   13.3100   12.7970    2.9160 O   0  0  0  0  0  1  0  0  0  0  0  0
   14.5700   12.7760    2.9630 C   0  0  0  0  0  0  0  0  0  0  0  0
   15.3830   12.0520    2.3190 O   0  0  0  0  0  0  0  0  0  0  0  0
   18.8770   14.6170    4.2680 S   0  0  0  0  0  6  0  0  0  0  0  0
   19.1720   13.6500    3.2250 O   0  0  0  0  0  0  0  0  0  0  0  0
   19.0570   14.2570    5.6590 O   0  0  0  0  0  0  0  0  0  0  0  0
   19.8780   16.0550    3.9440 C   0  0  0  0  0  0  0  0  0  0  0  0
   20.9280   16.3790    4.8110 C   0  0  0  0  0  0  0  0  0  0  0  0
   21.7000   17.5140    4.5670 C   0  0  0  0  0  0  0  0  0  0  0  0
   21.4200   18.3260    3.4670 C   0  0  0  0  0  0  0  0  0  0  0  0
   20.3610   18.0110    2.6150 C   0  0  0  0  0  0  0  0  0  0  0  0
   19.5770   16.8820    2.8590 C   0  0  0  0  0  0  0  0  0  0  0  0
   15.5102   13.2066    4.8526 H   0  0  0  0  0  0  0  0  0  0  0  0
   13.5859   15.1317    3.7700 H   0  0  0  0  0  0  0  0  0  0  0  0
   13.8996   14.4974    5.4427 H   0  0  0  0  0  0  0  0  0  0  0  0
   15.1527   16.7988    3.9837 H   0  0  0  0  0  0  0  0  0  0  0  0
   14.7076   16.6015    5.7280 H   0  0  0  0  0  0  0  0  0  0  0  0
   17.1440   16.6936    5.4727 H   0  0  0  0  0  0  0  0  0  0  0  0
   16.6157   15.0592    6.0252 H   0  0  0  0  0  0  0  0  0  0  0  0
   16.9830   13.5011    2.7158 H   0  0  0  0  0  0  0  0  0  0  0  0
   15.9954   14.9668    2.3439 H   0  0  0  0  0  0  0  0  0  0  0  0
   21.1431   15.7410    5.6809 H   0  0  0  0  0  0  0  0  0  0  0  0
   22.5302   17.7696    5.2418 H   0  0  0  0  0  0  0  0  0  0  0  0
   22.0356   19.2163    3.2713 H   0  0  0  0  0  0  0  0  0  0  0  0
   20.1434   18.6536    1.7492 H   0  0  0  0  0  0  0  0  0  0  0  0
   18.7278   16.6451    2.2012 H   0  0  0  0  0  0  0  0  0  0  0  0
  2  1  1  0
  3  2  1  0
  4  3  1  0
  5  4  1  0
  6  1  1  0
  6  5  1  0
  8  7  1  0
  8  1  1  0
  9  8  2  0
 10  5  1  0
 11 10  2  0
 12 10  2  0
 13 10  1  0
 14 13  2  0
 15 14  1  0
 16 15  2  0
 17 16  1  0
 18 13  1  0
 18 17  2  0
  1 19  1  1
  2 20  1  0
  2 21  1  0
  3 22  1  0
  3 23  1  0
  4 24  1  0
  4 25  1  0
  6 26  1  0
  6 27  1  0
 14 28  1  0
 15 29  1  0
 16 30  1  0
 17 31  1  0
 18 32  1  0
M  CHG  1   7  -1
M  END
$$$$
=
     RDKit          3D

 26 27  0  0  0  0  0  0  0  0999 V2000
   19.2010   16.0140    3.7720 C   0  0  0  0  0  0  0  0  0  0  0  0
   21.2080   16.9440    5.1880 C   0  0  0  0  0  0  0  0  0  0  0  0
   21.8500   16.7040    6.4080 N   0  0  0  0  0  0  0  0  0  0  0  0
   21.3420   15.6560    7.0360 N   0  0  0  0  0  0  0  0  0  0  0  0
   20.0940   14.9430    6.1940 S   0  0  0  0  0  0  0  0  0  0  0  0
   20.1520   16.0840    4.9120 C   0  0  0  0  0  0  0  0  0  0  0  0
   21.2990   18.0230    2.9960 O   0  0  0  0  0  1  0  0  0  0  0  0
   21.6790   18.1010    4.2040 C   0  0  0  0  0  0  0  0  0  0  0  0
   22.3840   19.0290    4.7140 O   0  0  0  0  0  0  0  0  0  0  0  0
   18.2000   15.0220    4.0200 O   0  0  0  0  0  0  0  0  0  0  0  0
   16.9040   15.5480    4.2870 C   0  0  0  0  0  0  0  0  0  0  0  0
   15.8490   14.5410    3.8910 C   0  0  0  0  0  0  0  0  0  0  0  0
   14.5200   14.7040    4.3110 C   0  0  0  0  0  0  0  0  0  0  0  0
   13.5340   13.7980    3.9140 C   0  0  0  0  0  0  0  0  0  0  0  0
   13.8620   12.7260    3.0860 C   0  0  0  0  0  0  0  0  0  0  0  0
   15.1750   12.5610    2.6510 C   0  0  0  0  0  0  0  0  0  0  0  0
   16.1610   13.4660    3.0460 C   0  0  0  0  0  0  0  0  0  0  0  0
   18.7171   16.9933    3.6426 H   0  0  0  0  0  0  0  0  0  0  0  0
   19.7545   15.7436    2.8607 H   0  0  0  0  0  0  0  0  0  0  0  0
   16.8137   15.7678    5.3610 H   0  0  0  0  0  0  0  0  0  0  0  0
   16.7606   16.4707    3.7055 H   0  0  0  0  0  0  0  0  0  0  0  0
   14.2526   15.5523    4.9582 H   0  0  0  0  0  0  0  0  0  0  0  0
   12.4968   13.9308    4.2554 H   0  0  0  0  0  0  0  0  0  0  0  0
   13.0852   12.0113    2.7765 H   0  0  0  0  0  0  0  0  0  0  0  0
   15.4348   11.7166    1.9956 H   0  0  0  0  0  0  0  0  0  0  0  0
   17.1938   13.3349    2.6909 H   0  0  0  0  0  0  0  0  0  0  0  0
  3  2  1  0
  4  3  2  0
  5  4  1  0
  6  1  1  0
  6  5  1  0
  6  2  2  0
  8  7  1  0
  8  2  1  0
  9  8  2  0
 10  1  1  0
 11 10  1  0
 12 11  1  0
 13 12  2  0
 14 13  1  0
 15 14  2  0
 16 15  1  0
 17 16  2  0
 17 12  1  0
  1 18  1  0
  1 19  1  0
 11 20  1  0
 11 21  1  0
 13 22  1  0
 14 23  1  0
 15 24  1  0
 16 25  1  0
 17 26  1  0
M  CHG  1   7  -1
M  END
$$$$
=
     RDKit          3D

 24 24  0  0  0  0  0  0  0  0999 V2000
   19.3490   17.0420    4.0760 N   0  0  0  0  0  0  0  0  0  0  0  0
   20.2740   16.9260    5.1880 C   0  0  0  0  0  0  0  0  0  0  0  0
   21.2350   18.0750    4.9710 C   0  0  2  0  0  0  0  0  0  0  0  0
   21.3000   18.2050    3.4550 C   0  0  0  0  0  0  0  0  0  0  0  0
   19.9660   17.6740    2.9970 C   0  0  0  0  0  0  0  0  0  0  0  0
   19.5230   17.7550    1.8590 O   0  0  0  0  0  0  0  0  0  0  0  0
   18.6330   14.6940    3.7920 C   0  0  0  0  0  0  0  0  0  0  0  0
   18.2020   16.1570    3.9000 C   0  0  0  0  0  0  0  0  0  0  0  0
   17.1550   16.3350    4.9970 C   0  0  0  0  0  0  0  0  0  0  0  0
   22.5600   17.7880    5.6590 C   0  0  0  0  0  0  0  0  0  0  0  0
   22.5360   16.8670    6.5200 O   0  0  0  0  0  0  0  0  0  0  0  0
   23.5360   18.4870    5.2660 O   0  0  0  0  0  1  0  0  0  0  0  0
   19.7484   17.0294    6.1488 H   0  0  0  0  0  0  0  0  0  0  0  0
   20.7772   15.9486    5.2260 H   0  0  0  0  0  0  0  0  0  0  0  0
   20.9249   19.0327    5.4146 H   0  0  0  0  0  0  0  0  0  0  0  0
   21.4283   19.2558    3.1559 H   0  0  0  0  0  0  0  0  0  0  0  0
   22.1500   17.6627    3.0153 H   0  0  0  0  0  0  0  0  0  0  0  0
   18.7571   14.2729    4.8006 H   0  0  0  0  0  0  0  0  0  0  0  0
   17.8645   14.1245    3.2488 H   0  0  0  0  0  0  0  0  0  0  0  0
   19.5875   14.6321    3.2488 H   0  0  0  0  0  0  0  0  0  0  0  0
   17.7295   16.4462    2.9497 H   0  0  0  0  0  0  0  0  0  0  0  0
   17.6381   16.2529    5.9818 H   0  0  0  0  0  0  0  0  0  0  0  0
   16.6868   17.3256    4.8998 H   0  0  0  0  0  0  0  0  0  0  0  0
   16.3857   15.5547    4.8998 H   0  0  0  0  0  0  0  0  0  0  0  0
  2  1  1  0
  3  2  1  0
  4  3  1  0
  5  4  1  0
  5  1  1  0
  6  5  2  0
  8  7  1  0
  8  1  1  0
  9  8  1  0
 10  3  1  0
 11 10  2  0
 12 10  1  0
  2 13  1  0
  2 14  1  0
  3 15  1  1
  4 16  1  0
  4 17  1  0
  7 18  1  0
  7 19  1  0
  7 20  1  0
  8 21  1  0
  9 22  1  0
  9 23  1  0
  9 24  1  0
M  CHG  1  12  -1
M  END
$$$$
=
     RDKit          3D

 26 27  0  0  0  0  0  0  0  0999 V2000
   18.9490   15.6520    3.7300 S   0  0  0  0  0  6  0  0  0  0  0  0
   18.8540   16.7100    2.7440 O   0  0  0  0  0  0  0  0  0  0  0  0
   19.3790   14.3220    3.3500 O   0  0  0  0  0  0  0  0  0  0  0  0
   17.2920   15.4330    4.2600 C   0  0  0  0  0  0  0  0  0  0  0  0
   16.6360   15.8430    5.4060 C   0  0  0  0  0  0  0  0  0  0  0  0
   15.3220   15.4530    5.4140 N   0  0  0  0  0  0  0  0  0  0  0  0
   15.1650   14.8070    4.2820 C   0  0  0  0  0  0  0  0  0  0  0  0
   16.3210   14.7710    3.5520 N   0  0  0  0  0  0  0  0  0  0  0  0
   21.4660   17.8470    5.7880 C   0  0  2  0  0  0  0  0  0  0  0  0
   21.9110   16.4520    6.2070 C   0  0  0  0  0  0  0  0  0  0  0  0
   21.2330   15.5400    5.1920 C   0  0  0  0  0  0  0  0  0  0  0  0
   19.9340   16.1930    4.9670 N   0  0  0  0  0  0  0  0  0  0  0  0
   20.0690   17.6500    5.2170 C   0  0  0  0  0  0  0  0  0  0  0  0
   23.6380   18.5170    5.1740 O   0  0  0  0  0  1  0  0  0  0  0  0
   22.4560   18.3890    4.7610 C   0  0  0  0  0  0  0  0  0  0  0  0
   21.9810   18.6250    3.6110 O   0  0  0  0  0  0  0  0  0  0  0  0
   17.1125   16.4148    6.2159 H   0  0  0  0  0  0  0  0  0  0  0  0
   14.2179   14.3498    3.9595 H   0  0  0  0  0  0  0  0  0  0  0  0
   16.4416   14.3248    2.6315 H   0  0  0  0  0  0  0  0  0  0  0  0
   21.4415   18.5794    6.6084 H   0  0  0  0  0  0  0  0  0  0  0  0
   23.0054   16.3558    6.1521 H   0  0  0  0  0  0  0  0  0  0  0  0
   21.6409   16.2111    7.2457 H   0  0  0  0  0  0  0  0  0  0  0  0
   21.8143   15.4868    4.2597 H   0  0  0  0  0  0  0  0  0  0  0  0
   21.1385   14.5013    5.5414 H   0  0  0  0  0  0  0  0  0  0  0  0
   19.9568   18.2115    4.2778 H   0  0  0  0  0  0  0  0  0  0  0  0
   19.2948   18.0149    5.9081 H   0  0  0  0  0  0  0  0  0  0  0  0
  2  1  2  0
  3  1  2  0
  4  1  1  0
  5  4  2  0
  6  5  1  0
  7  6  2  0
  8  7  1  0
  8  4  1  0
 10  9  1  0
 11 10  1  0
 12 11  1  0
 12  1  1  0
 13 12  1  0
 13  9  1  0
 15  9  1  0
 15 14  1  0
 16 15  2  0
  5 17  1  0
  7 18  1  0
  8 19  1  0
  9 20  1  1
 10 21  1  0
 10 22  1  0
 11 23  1  0
 11 24  1  0
 13 25  1  0
 13 26  1  0
M  CHG  1  14  -1
M  END
$$$$
=
     RDKit          3D

 59 59  0  0  0  0  0  0  0  0999 V2000
   25.0900   27.1230   16.1760 C   0  0  0  0  0  0  0  0  0  0  0  0
   24.5320   26.3970   17.2880 O   0  0  0  0  0  0  0  0  0  0  0  0
   23.3710   27.0470   17.8170 C   0  0  0  0  0  0  0  0  0  0  0  0
   22.0650   26.5190   17.2270 C   0  0  0  0  0  0  0  0  0  0  0  0
   21.9330   25.1280   17.5450 O   0  0  0  0  0  0  0  0  0  0  0  0
   20.5560   24.7670   17.6870 C   0  0  0  0  0  0  0  0  0  0  0  0
   20.3410   23.3830   17.0760 C   0  0  0  0  0  0  0  0  0  0  0  0
   21.3330   22.4150   17.4250 O   0  0  0  0  0  0  0  0  0  0  0  0
   21.8660   21.6580   16.3290 C   0  0  0  0  0  0  0  0  0  0  0  0
   22.1670   22.4860   15.0730 C   0  0  0  0  0  0  0  0  0  0  0  0
   23.3890   23.2220   15.1620 O   0  0  0  0  0  0  0  0  0  0  0  0
   23.4320   24.4060   14.3500 C   0  0  0  0  0  0  0  0  0  0  0  0
   24.5210   24.3620   13.2880 C   0  0  0  0  0  0  0  0  0  0  0  0
   24.1790   25.1410   12.0240 C   0  0  0  0  0  0  0  0  0  0  0  0
   24.1210   24.4780   10.9520 O   0  0  0  0  0  0  0  0  0  0  0  0
   23.9900   26.3790   12.1920 O   0  0  0  0  0  1  0  0  0  0  0  0
   26.1740   28.0580   16.7120 C   0  0  0  0  0  0  0  0  0  0  0  0
   28.5730   29.1420   17.7780 O   0  0  0  0  0  0  0  0  0  0  0  0
   28.5070   27.9430   17.5300 C   0  0  0  0  0  0  0  0  0  0  0  0
   27.3780   27.3180   17.0580 N   0  0  0  0  0  0  0  0  0  0  0  0
   29.6690   26.9900   17.7040 C   0  0  0  0  0  0  0  0  0  0  0  0
   29.2830   25.5740   17.2940 C   0  0  0  0  0  0  0  0  0  0  0  0
   30.3470   25.0340   15.9110 S   0  0  0  0  0  0  0  0  0  0  0  0
   29.9680   26.4820   14.4970 S   0  0  0  0  0  0  0  0  0  0  0  0
   29.1390   25.5520   13.2210 C   0  0  0  0  0  0  0  0  0  0  0  0
   28.4160   26.1980   12.2230 C   0  0  0  0  0  0  0  0  0  0  0  0
   27.7690   25.4300   11.2590 C   0  0  0  0  0  0  0  0  0  0  0  0
   27.8640   24.0450   11.3180 C   0  0  0  0  0  0  0  0  0  0  0  0
   28.6120   23.4840   12.3410 C   0  0  0  0  0  0  0  0  0  0  0  0
   29.2550   24.2060   13.2840 N   0  0  0  0  0  0  0  0  0  0  0  0
   25.5293   26.4187   15.4542 H   0  0  0  0  0  0  0  0  0  0  0  0
   24.3051   27.7027   15.6683 H   0  0  0  0  0  0  0  0  0  0  0  0
   23.3500   26.8935   18.9060 H   0  0  0  0  0  0  0  0  0  0  0  0
   23.4429   28.1120   17.5514 H   0  0  0  0  0  0  0  0  0  0  0  0
   21.2172   27.0758   17.6527 H   0  0  0  0  0  0  0  0  0  0  0  0
   22.0734   26.6493   16.1348 H   0  0  0  0  0  0  0  0  0  0  0  0
   20.2882   24.7453   18.7537 H   0  0  0  0  0  0  0  0  0  0  0  0
   19.9227   25.5041   17.1717 H   0  0  0  0  0  0  0  0  0  0  0  0
   19.3632   23.0081   17.4126 H   0  0  0  0  0  0  0  0  0  0  0  0
   20.4032   23.5120   15.9854 H   0  0  0  0  0  0  0  0  0  0  0  0
   22.8016   21.1843   16.6610 H   0  0  0  0  0  0  0  0  0  0  0  0
   21.0926   20.9288   16.0460 H   0  0  0  0  0  0  0  0  0  0  0  0
   22.2317   21.8042   14.2122 H   0  0  0  0  0  0  0  0  0  0  0  0
   21.3529   23.2173   14.9613 H   0  0  0  0  0  0  0  0  0  0  0  0
   22.4594   24.5229   13.8496 H   0  0  0  0  0  0  0  0  0  0  0  0
   23.6569   25.2524   15.0157 H   0  0  0  0  0  0  0  0  0  0  0  0
   25.4414   24.7844   13.7174 H   0  0  0  0  0  0  0  0  0  0  0  0
   24.6388   23.3088   12.9933 H   0  0  0  0  0  0  0  0  0  0  0  0
   26.4192   28.8034   15.9411 H   0  0  0  0  0  0  0  0  0  0  0  0
   25.7937   28.5513   17.6187 H   0  0  0  0  0  0  0  0  0  0  0  0
   27.3842   26.2942   16.9457 H   0  0  0  0  0  0  0  0  0  0  0  0
   30.5083   27.3289   17.0789 H   0  0  0  0  0  0  0  0  0  0  0  0
   29.9570   26.9802   18.7656 H   0  0  0  0  0  0  0  0  0  0  0  0
   29.4181   24.8945   18.1484 H   0  0  0  0  0  0  0  0  0  0  0  0
   28.2298   25.5566   16.9769 H   0  0  0  0  0  0  0  0  0  0  0  0
   28.3567   27.2961   12.1963 H   0  0  0  0  0  0  0  0  0  0  0  0
   27.1890   25.9141   10.4595 H   0  0  0  0  0  0  0  0  0  0  0  0
   27.3596   23.4115   10.5735 H   0  0  0  0  0  0  0  0  0  0  0  0
   28.6863   22.3875   12.3876 H   0  0  0  0  0  0  0  0  0  0  0  0
  2  1  1  0
  3  2  1  0
  4  3  1  0
  5  4  1  0
  6  5  1  0
  7  6  1  0
  8  7  1  0
  9  8  1  0
 10  9  1  0
 11 10  1  0
 12 11  1  0
 13 12  1  0
 14 13  1  0
 15 14  2  0
 16 14  1  0
 17  1  1  0
 19 18  2  0
 20 17  1  0
 20 19  1  0
 21 19  1  0
 22 21  1  0
 23 22  1  0
 24 23  1  0
 25 24  1  0
 26 25  2  0
 27 26  1  0
 28 27  2  0
 29 28  1  0
 30 29  2  0
 30 25  1  0
  1 31  1  0
  1 32  1  0
  3 33  1  0
  3 34  1  0
  4 35  1  0
  4 36  1  0
  6 37  1  0
  6 38  1  0
  7 39  1  0
  7 40  1  0
  9 41  1  0
  9 42  1  0
 10 43  1  0
 10 44  1  0
 12 45  1  0
 12 46  1  0
 13 47  1  0
 13 48  1  0
 17 49  1  0
 17 50  1  0
 20 51  1  0
 21 52  1  0
 21 53  1  0
 22 54  1  0
 22 55  1  0
 26 56  1  0
 27 57  1  0
 28 58  1  0
 29 59  1  0
M  CHG  1  16  -1
M  END
$$$$
=
     RDKit          3D

 19 20  0  0  0  0  0  0  0  0999 V2000
   19.1500   16.1360    3.2620 C   0  0  0  0  0  0  0  0  0  0  0  0
   19.7410   14.9640    3.4650 N   0  0  0  0  0  0  0  0  0  0  0  0
   18.7380   14.0270    3.6280 N   0  0  0  0  0  0  0  0  0  0  0  0
   17.6010   14.6800    3.5160 C   0  0  0  0  0  0  0  0  0  0  0  0
   17.7730   16.0120    3.2840 O   0  0  0  0  0  0  0  0  0  0  0  0
   16.2290   14.1900    3.6010 C   0  0  0  0  0  0  0  0  0  0  0  0
   15.2320   14.8970    4.2900 C   0  0  0  0  0  0  0  0  0  0  0  0
   13.9250   14.4080    4.3590 C   0  0  0  0  0  0  0  0  0  0  0  0
   13.5980   13.2030    3.7390 C   0  0  0  0  0  0  0  0  0  0  0  0
   14.5750   12.4880    3.0520 C   0  0  0  0  0  0  0  0  0  0  0  0
   15.8830   12.9780    2.9840 C   0  0  0  0  0  0  0  0  0  0  0  0
   20.1410   17.8360    1.8060 O   0  0  0  0  0  1  0  0  0  0  0  0
   19.8970   17.5360    3.0190 C   0  0  0  0  0  0  0  0  0  0  0  0
   20.1890   18.2390    4.0380 O   0  0  0  0  0  0  0  0  0  0  0  0
   15.4825   15.8484    4.7821 H   0  0  0  0  0  0  0  0  0  0  0  0
   13.1540   14.9738    4.9025 H   0  0  0  0  0  0  0  0  0  0  0  0
   12.5691   12.8176    3.7926 H   0  0  0  0  0  0  0  0  0  0  0  0
   14.3180   11.5371    2.5624 H   0  0  0  0  0  0  0  0  0  0  0  0
   16.6498   12.4066    2.4404 H   0  0  0  0  0  0  0  0  0  0  0  0
  2  1  2  0
  3  2  1  0
  4  3  2  0
  5  4  1  0
  5  1  1  0
  6  4  1  0
  7  6  2  0
  8  7  1  0
  9  8  2  0
 10  9  1  0
 11 10  2  0
 11  6  1  0
 13  1  1  0
 13 12  1  0
 14 13  2  0
  7 15  1  0
  8 16  1  0
  9 17  1  0
 10 18  1  0
 11 19  1  0
M  CHG  1  12  -1
M  END
$$$$
=
     RDKit          3D

 40 39  0  0  0  0  0  0  0  0999 V2000
   26.1970   26.7640   15.8900 C   0  0  2  0  0  0  0  0  0  0  0  0
   26.6090   23.9560   15.1400 O   0  0  0  0  0  0  0  0  0  0  0  0
   26.5550   24.8490   14.3080 C   0  0  0  0  0  0  0  0  0  0  0  0
   26.3660   26.1630   14.5580 N   0  0  0  0  0  0  0  0  0  0  0  0
   26.6540   24.6730   12.9660 O   0  0  0  0  0  0  0  0  0  0  0  0
   27.9450   24.7050   12.3110 C   0  0  0  0  0  0  0  0  0  0  0  0
   27.7900   23.7670   11.1030 C   0  0  0  0  0  0  0  0  0  0  0  0
   29.0480   24.1490   13.2190 C   0  0  0  0  0  0  0  0  0  0  0  0
   28.2780   26.1100   11.7970 C   0  0  0  0  0  0  0  0  0  0  0  0
   24.7070   26.9190   16.2960 C   0  0  0  0  0  0  0  0  0  0  0  0
   24.4110   26.5440   17.4660 O   0  0  0  0  0  0  0  0  0  0  0  0
   23.9590   27.4070   15.3930 O   0  0  0  0  0  1  0  0  0  0  0  0
   26.7110   28.2090   15.9360 C   0  0  0  0  0  0  0  0  0  0  0  0
   28.0800   28.2890   16.3590 O   0  0  0  0  0  0  0  0  0  0  0  0
   29.0590   28.6730   15.3870 C   0  0  0  0  0  0  0  0  0  0  0  0
   28.3730   29.2520   14.1420 C   0  0  0  0  0  0  0  0  0  0  0  0
   30.1100   29.6470   15.9300 C   0  0  0  0  0  0  0  0  0  0  0  0
   29.7620   27.3650   14.9930 C   0  0  0  0  0  0  0  0  0  0  0  0
   26.7478   26.0805   16.5529 H   0  0  0  0  0  0  0  0  0  0  0  0
   26.3378   26.7978   13.7474 H   0  0  0  0  0  0  0  0  0  0  0  0
   27.6202   22.7392   11.4563 H   0  0  0  0  0  0  0  0  0  0  0  0
   26.9333   24.0917   10.4942 H   0  0  0  0  0  0  0  0  0  0  0  0
   28.7056   23.7989   10.4942 H   0  0  0  0  0  0  0  0  0  0  0  0
   28.7633   24.2925   14.2718 H   0  0  0  0  0  0  0  0  0  0  0  0
   29.1818   23.0758   13.0184 H   0  0  0  0  0  0  0  0  0  0  0  0
   29.9903   24.6798   13.0184 H   0  0  0  0  0  0  0  0  0  0  0  0
   28.4379   26.7845   12.6511 H   0  0  0  0  0  0  0  0  0  0  0  0
   29.1915   26.0698   11.1855 H   0  0  0  0  0  0  0  0  0  0  0  0
   27.4436   26.4840   11.1855 H   0  0  0  0  0  0  0  0  0  0  0  0
   26.6258   28.6465   14.9304 H   0  0  0  0  0  0  0  0  0  0  0  0
   26.1010   28.7591   16.6677 H   0  0  0  0  0  0  0  0  0  0  0  0
   27.5663   29.9329   14.4511 H   0  0  0  0  0  0  0  0  0  0  0  0
   29.1098   29.8054   13.5413 H   0  0  0  0  0  0  0  0  0  0  0  0
   27.9513   28.4327   13.5413 H   0  0  0  0  0  0  0  0  0  0  0  0
   30.0919   29.6303   17.0297 H   0  0  0  0  0  0  0  0  0  0  0  0
   31.1068   29.3462   15.5750 H   0  0  0  0  0  0  0  0  0  0  0  0
   29.8858   30.6637   15.5750 H   0  0  0  0  0  0  0  0  0  0  0  0
   30.0557   26.8186   15.9014 H   0  0  0  0  0  0  0  0  0  0  0  0
   29.0757   26.7448   14.3978 H   0  0  0  0  0  0  0  0  0  0  0  0
   30.6579   27.5952   14.3978 H   0  0  0  0  0  0  0  0  0  0  0  0
  3  2  2  0
  4  3  1  0
  4  1  1  0
  5  3  1  0
  6  5  1  0
  7  6  1  0
  8  6  1  0
  9  6  1  0
 10  1  1  0
 11 10  2  0
 12 10  1  0
 13  1  1  0
 14 13  1  0
 15 14  1  0
 16 15  1  0
 17 15  1  0
 18 15  1  0
  1 19  1  1
  4 20  1  0
  7 21  1  0
  7 22  1  0
  7 23  1  0
  8 24  1  0
  8 25  1  0
  8 26  1  0
  9 27  1  0
  9 28  1  0
  9 29  1  0
 13 30  1  0
 13 31  1  0
 16 32  1  0
 16 33  1  0
 16 34  1  0
 17 35  1  0
 17 36  1  0
 17 37  1  0
 18 38  1  0
 18 39  1  0
 18 40  1  0
M  CHG  1  12  -1
M  END
$$$$
=
     RDKit          3D

 41 43  0  0  0  0  0  0  0  0999 V2000
   15.5460   13.2850    3.2800 S   0  0  0  0  0  6  0  0  0  0  0  0
   16.1640   12.0760    3.7840 O   0  0  0  0  0  0  0  0  0  0  0  0
   15.3430   13.4780    1.8580 O   0  0  0  0  0  0  0  0  0  0  0  0
   16.5320   14.6370    3.8830 C   0  0  0  0  0  0  0  0  0  0  0  0
   16.0540   15.3910    4.9580 C   0  0  0  0  0  0  0  0  0  0  0  0
   16.8230   16.4460    5.4480 C   0  0  0  0  0  0  0  0  0  0  0  0
   18.0640   16.7410    4.8760 C   0  0  0  0  0  0  0  0  0  0  0  0
   18.5140   16.0060    3.7650 C   0  0  0  0  0  0  0  0  0  0  0  0
   17.7600   14.9310    3.2890 C   0  0  0  0  0  0  0  0  0  0  0  0
   19.6760   16.2460    3.0750 O   0  0  0  0  0  0  0  0  0  0  0  0
   19.9920   17.6340    2.9640 C   0  0  0  0  0  0  0  0  0  0  0  0
   20.7700   18.1120    4.1790 C   0  0  0  0  0  0  0  0  0  0  0  0
   20.1610   17.6000    5.4730 C   0  0  0  0  0  0  0  0  0  0  0  0
   18.7440   17.7720    5.4770 O   0  0  0  0  0  0  0  0  0  0  0  0
   11.1110   13.9840    3.7560 C   0  0  0  0  0  0  0  0  0  0  0  0
   12.0580   14.9300    4.5070 C   0  0  0  0  0  0  0  0  0  0  0  0
   13.4630   14.8900    3.9240 C   0  0  0  0  0  0  0  0  0  0  0  0
   14.0640   13.5340    4.0710 N   0  0  0  0  0  0  0  0  0  0  0  0
   13.0760   12.4140    3.9370 C   0  0  0  0  0  0  0  0  0  0  0  0
   11.8720   12.8300    3.1000 C   0  0  0  0  0  0  0  0  0  0  0  0
   10.3760   13.6670    5.9980 O   0  0  0  0  0  1  0  0  0  0  0  0
   10.0560   13.5450    4.7830 C   0  0  0  0  0  0  0  0  0  0  0  0
    8.9810   13.1130    4.2760 O   0  0  0  0  0  0  0  0  0  0  0  0
   15.0809   15.1547    5.4131 H   0  0  0  0  0  0  0  0  0  0  0  0
   16.4511   17.0494    6.2892 H   0  0  0  0  0  0  0  0  0  0  0  0
   18.1313   14.3209    2.4524 H   0  0  0  0  0  0  0  0  0  0  0  0
   20.5999   17.7939    2.0613 H   0  0  0  0  0  0  0  0  0  0  0  0
   19.0534   18.2042    2.9011 H   0  0  0  0  0  0  0  0  0  0  0  0
   21.8058   17.7492    4.1044 H   0  0  0  0  0  0  0  0  0  0  0  0
   20.7377   19.2114    4.1962 H   0  0  0  0  0  0  0  0  0  0  0  0
   20.3934   16.5303    5.5809 H   0  0  0  0  0  0  0  0  0  0  0  0
   20.5851   18.1740    6.3100 H   0  0  0  0  0  0  0  0  0  0  0  0
   10.6134   14.4768    2.9078 H   0  0  0  0  0  0  0  0  0  0  0  0
   11.6697   15.9566    4.4342 H   0  0  0  0  0  0  0  0  0  0  0  0
   12.1102   14.6050    5.5566 H   0  0  0  0  0  0  0  0  0  0  0  0
   13.4168   15.1491    2.8559 H   0  0  0  0  0  0  0  0  0  0  0  0
   14.0892   15.6118    4.4689 H   0  0  0  0  0  0  0  0  0  0  0  0
   13.5692   11.5579    3.4534 H   0  0  0  0  0  0  0  0  0  0  0  0
   12.7212   12.1439    4.9426 H   0  0  0  0  0  0  0  0  0  0  0  0
   12.2194   13.1489    2.1062 H   0  0  0  0  0  0  0  0  0  0  0  0
   11.1927   11.9689    3.0169 H   0  0  0  0  0  0  0  0  0  0  0  0
  2  1  2  0
  3  1  2  0
  4  1  1  0
  5  4  2  0
  6  5  1  0
  7  6  2  0
  8  7  1  0
  9  8  2  0
  9  4  1  0
 10  8  1  0
 11 10  1  0
 12 11  1  0
 13 12  1  0
 14  7  1  0
 14 13  1  0
 16 15  1  0
 17 16  1  0
 18 17  1  0
 18  1  1  0
 19 18  1  0
 20 19  1  0
 20 15  1  0
 22 21  1  0
 22 15  1  0
 23 22  2  0
  5 24  1  0
  6 25  1  0
  9 26  1  0
 11 27  1  0
 11 28  1  0
 12 29  1  0
 12 30  1  0
 13 31  1  0
 13 32  1  0
 15 33  1  0
 16 34  1  0
 16 35  1  0
 17 36  1  0
 17 37  1  0
 19 38  1  0
 19 39  1  0
 20 40  1  0
 20 41  1  0
M  CHG  1  21  -1
M  END
$$$$
=
     RDKit          3D

 49 50  0  0  0  0  0  0  0  0999 V2000
   16.0960   15.5200    4.2340 C   0  0  1  0  0  0  0  0  0  0  0  0
   15.9120   16.0200    5.6860 C   0  0  0  0  0  0  0  0  0  0  0  0
   16.9150   15.3810    6.6430 C   0  0  0  0  0  0  0  0  0  0  0  0
   18.3450   15.6700    6.1910 C   0  0  0  0  0  0  0  0  0  0  0  0
   18.5220   15.5540    4.7470 N   0  0  0  0  0  0  0  0  0  0  0  0
   17.4690   14.8640    4.0050 C   0  0  0  0  0  0  0  0  0  0  0  0
   19.7140   15.8750    4.1250 C   0  0  0  0  0  0  0  0  0  0  0  0
   19.9250   15.7290    2.9280 O   0  0  0  0  0  0  0  0  0  0  0  0
   12.7550   13.9510    3.9290 C   0  0  0  0  0  0  0  0  0  0  0  0
   12.9920   12.8090    3.1730 C   0  0  0  0  0  0  0  0  0  0  0  0
   14.2880   12.5390    2.7490 C   0  0  0  0  0  0  0  0  0  0  0  0
   15.3120   13.4160    3.0810 C   0  0  0  0  0  0  0  0  0  0  0  0
   15.0050   14.5490    3.8290 C   0  0  0  0  0  0  0  0  0  0  0  0
   13.7470   14.8210    4.2560 N   0  0  0  0  0  0  0  0  0  0  0  0
   11.3630   14.2820    4.4180 C   0  0  0  0  0  0  0  0  0  0  0  0
   11.0070   13.6020    5.7340 C   0  0  0  0  0  0  0  0  0  0  0  0
    8.7810   14.1850    5.2400 O   0  0  0  0  0  1  0  0  0  0  0  0
    9.5280   13.6630    6.1140 C   0  0  0  0  0  0  0  0  0  0  0  0
    9.2180   13.1730    7.2360 O   0  0  0  0  0  0  0  0  0  0  0  0
   20.6190   16.3820    5.0040 O   0  0  0  0  0  0  0  0  0  0  0  0
   21.0090   17.7780    4.9550 C   0  0  0  0  0  0  0  0  0  0  0  0
   21.4310   18.1920    3.5410 C   0  0  0  0  0  0  0  0  0  0  0  0
   22.2330   17.8690    5.8780 C   0  0  0  0  0  0  0  0  0  0  0  0
   19.9080   18.6850    5.5150 C   0  0  0  0  0  0  0  0  0  0  0  0
   16.0314   16.4184    3.6025 H   0  0  0  0  0  0  0  0  0  0  0  0
   16.0483   17.1113    5.7056 H   0  0  0  0  0  0  0  0  0  0  0  0
   14.9011   15.7389    6.0163 H   0  0  0  0  0  0  0  0  0  0  0  0
   16.7645   15.7917    7.6523 H   0  0  0  0  0  0  0  0  0  0  0  0
   16.7571   14.2924    6.6489 H   0  0  0  0  0  0  0  0  0  0  0  0
   18.6084   16.6938    6.4951 H   0  0  0  0  0  0  0  0  0  0  0  0
   18.9968   14.9203    6.6633 H   0  0  0  0  0  0  0  0  0  0  0  0
   17.4247   13.8165    4.3378 H   0  0  0  0  0  0  0  0  0  0  0  0
   17.7060   14.9242    2.9325 H   0  0  0  0  0  0  0  0  0  0  0  0
   12.1667   12.1293    2.9142 H   0  0  0  0  0  0  0  0  0  0  0  0
   14.5006   11.6378    2.1552 H   0  0  0  0  0  0  0  0  0  0  0  0
   16.3453   13.2193    2.7593 H   0  0  0  0  0  0  0  0  0  0  0  0
   11.2921   15.3708    4.5576 H   0  0  0  0  0  0  0  0  0  0  0  0
   10.6561   13.9134    3.6601 H   0  0  0  0  0  0  0  0  0  0  0  0
   11.2968   12.5434    5.6603 H   0  0  0  0  0  0  0  0  0  0  0  0
   11.5486   14.1499    6.5191 H   0  0  0  0  0  0  0  0  0  0  0  0
   22.2150   18.9611    3.6027 H   0  0  0  0  0  0  0  0  0  0  0  0
   21.8194   17.3149    3.0027 H   0  0  0  0  0  0  0  0  0  0  0  0
   20.5615   18.5971    3.0027 H   0  0  0  0  0  0  0  0  0  0  0  0
   21.9036   17.8445    6.9272 H   0  0  0  0  0  0  0  0  0  0  0  0
   22.9026   17.0182    5.6839 H   0  0  0  0  0  0  0  0  0  0  0  0
   22.7695   18.8095    5.6839 H   0  0  0  0  0  0  0  0  0  0  0  0
   19.9371   18.6610    6.6144 H   0  0  0  0  0  0  0  0  0  0  0  0
   20.0694   19.7157    5.1663 H   0  0  0  0  0  0  0  0  0  0  0  0
   18.9272   18.3293    5.1663 H   0  0  0  0  0  0  0  0  0  0  0  0
  2  1  1  0
  3  2  1  0
  4  3  1  0
  5  4  1  0
  6  1  1  0
  6  5  1  0
  7  5  1  0
  8  7  2  0
 10  9  2  0
 11 10  1  0
 12 11  2  0
 13 12  1  0
 13  1  1  0
 14 13  2  0
 14  9  1  0
 15  9  1  0
 16 15  1  0
 18 17  1  0
 18 16  1  0
 19 18  2  0
 20  7  1  0
 21 20  1  0
 22 21  1  0
 23 21  1  0
 24 21  1  0
  1 25  1  6
  2 26  1  0
  2 27  1  0
  3 28  1  0
  3 29  1  0
  4 30  1  0
  4 31  1  0
  6 32  1  0
  6 33  1  0
 10 34  1  0
 11 35  1  0
 12 36  1  0
 15 37  1  0
 15 38  1  0
 16 39  1  0
 16 40  1  0
 22 41  1  0
 22 42  1  0
 22 43  1  0
 23 44  1  0
 23 45  1  0
 23 46  1  0
 24 47  1  0
 24 48  1  0
 24 49  1  0
M  CHG  1  17  -1
M  END
$$$$
=
     RDKit          3D

 32 33  0  0  0  0  0  0  0  0999 V2000
   15.8350   15.3070    6.7720 O   0  0  0  0  0  0  0  0  0  0  0  0
   16.2150   15.7470    5.6950 C   0  0  0  0  0  0  0  0  0  0  0  0
   15.8160   15.3530    4.4320 N   0  0  0  0  0  0  0  0  0  0  0  0
   14.7600   14.4730    4.0910 C   0  0  0  0  0  0  0  0  0  0  0  0
   13.4310   14.7170    4.4660 C   0  0  0  0  0  0  0  0  0  0  0  0
   12.3850   13.8610    4.0690 C   0  0  0  0  0  0  0  0  0  0  0  0
   12.7010   12.7360    3.2990 C   0  0  0  0  0  0  0  0  0  0  0  0
   14.0160   12.4770    2.9200 C   0  0  0  0  0  0  0  0  0  0  0  0
   15.0560   13.3380    3.3030 C   0  0  0  0  0  0  0  0  0  0  0  0
   16.4530   13.0030    2.8550 C   0  0  0  0  0  0  0  0  0  0  0  0
   10.9430   14.1540    4.4440 C   0  0  0  0  0  0  0  0  0  0  0  0
   10.1840   14.5860    3.5200 O   0  0  0  0  0  0  0  0  0  0  0  0
   10.6030   13.9580    5.6540 O   0  0  0  0  0  1  0  0  0  0  0  0
   17.2390   16.8640    5.6330 C   0  0  0  0  0  0  0  0  0  0  0  0
   18.4590   16.4580    4.8140 C   0  0  0  0  0  0  0  0  0  0  0  0
   19.6200   16.2190    5.6370 N   0  0  0  0  0  0  0  0  0  0  0  0
   20.7460   16.9640    5.7790 C   0  0  0  0  0  0  0  0  0  0  0  0
   21.5560   16.3340    6.5990 N   0  0  0  0  0  0  0  0  0  0  0  0
   20.8990   15.1840    6.9700 N   0  0  0  0  0  0  0  0  0  0  0  0
   19.7120   15.1060    6.3840 N   0  0  0  0  0  0  0  0  0  0  0  0
   16.3506   15.7464    3.6444 H   0  0  0  0  0  0  0  0  0  0  0  0
   13.2000   15.5970    5.0843 H   0  0  0  0  0  0  0  0  0  0  0  0
   11.9009   12.0477    2.9892 H   0  0  0  0  0  0  0  0  0  0  0  0
   14.2420   11.5875    2.3136 H   0  0  0  0  0  0  0  0  0  0  0  0
   17.0936   12.8494    3.7359 H   0  0  0  0  0  0  0  0  0  0  0  0
   16.4338   12.0840    2.2508 H   0  0  0  0  0  0  0  0  0  0  0  0
   16.8527   13.8308    2.2508 H   0  0  0  0  0  0  0  0  0  0  0  0
   16.7760   17.7482    5.1705 H   0  0  0  0  0  0  0  0  0  0  0  0
   17.5698   17.0866    6.6582 H   0  0  0  0  0  0  0  0  0  0  0  0
   18.2225   15.5370    4.2609 H   0  0  0  0  0  0  0  0  0  0  0  0
   18.6965   17.2881    4.1324 H   0  0  0  0  0  0  0  0  0  0  0  0
   20.9457   17.9294    5.2911 H   0  0  0  0  0  0  0  0  0  0  0  0
  2  1  2  0
  3  2  1  0
  4  3  1  0
  5  4  2  0
  6  5  1  0
  7  6  2  0
  8  7  1  0
  9  8  2  0
  9  4  1  0
 10  9  1  0
 11  6  1  0
 12 11  2  0
 13 11  1  0
 14  2  1  0
 15 14  1  0
 16 15  1  0
 17 16  1  0
 18 17  2  0
 19 18  1  0
 20 19  2  0
 20 16  1  0
  3 21  1  0
  5 22  1  0
  7 23  1  0
  8 24  1  0
 10 25  1  0
 10 26  1  0
 10 27  1  0
 14 28  1  0
 14 29  1  0
 15 30  1  0
 15 31  1  0
 17 32  1  0
M  CHG  1  13  -1
M  END
$$$$
=
     RDKit          3D

 19 19  0  0  0  0  0  0  0  0999 V2000
   19.9170   15.6880    5.3900 C   0  0  0  0  0  0  0  0  0  0  0  0
   19.8750   15.1390    4.1190 C   0  0  0  0  0  0  0  0  0  0  0  0
   18.7340   14.7980    3.4640 N   0  0  0  0  0  0  0  0  0  0  0  0
   17.5600   15.0150    4.1060 C   0  0  0  0  0  0  0  0  0  0  0  0
   17.4870   15.5650    5.3920 C   0  0  0  0  0  0  0  0  0  0  0  0
   18.6890   15.8990    6.0270 C   0  0  0  0  0  0  0  0  0  0  0  0
   16.1820   15.7990    6.0910 C   0  0  0  0  0  0  0  0  0  0  0  0
   16.3230   14.6260    3.3510 C   0  0  0  0  0  0  0  0  0  0  0  0
   21.3720   15.7100    7.2600 O   0  0  0  0  0  1  0  0  0  0  0  0
   21.2260   16.0340    6.0400 C   0  0  0  0  0  0  0  0  0  0  0  0
   22.0910   16.6260    5.3190 O   0  0  0  0  0  0  0  0  0  0  0  0
   20.8316   14.9670    3.6040 H   0  0  0  0  0  0  0  0  0  0  0  0
   18.6680   16.3321    7.0379 H   0  0  0  0  0  0  0  0  0  0  0  0
   16.3388   15.7709    7.1794 H   0  0  0  0  0  0  0  0  0  0  0  0
   15.7832   16.7830    5.8033 H   0  0  0  0  0  0  0  0  0  0  0  0
   15.4662   15.0149    5.8033 H   0  0  0  0  0  0  0  0  0  0  0  0
   15.5229   14.3744    4.0628 H   0  0  0  0  0  0  0  0  0  0  0  0
   16.0002   15.4660    2.7184 H   0  0  0  0  0  0  0  0  0  0  0  0
   16.5391   13.7524    2.7184 H   0  0  0  0  0  0  0  0  0  0  0  0
  2  1  2  0
  3  2  1  0
  4  3  2  0
  5  4  1  0
  6  5  2  0
  6  1  1  0
  7  5  1  0
  8  4  1  0
 10  1  1  0
 10  9  1  0
 11 10  2  0
  2 12  1  0
  6 13  1  0
  7 14  1  0
  7 15  1  0
  7 16  1  0
  8 17  1  0
  8 18  1  0
  8 19  1  0
M  CHG  1   9  -1
M  END
$$$$
=
     RDKit          3D

 36 37  0  0  0  0  0  0  0  0999 V2000
   27.0500   26.4510   13.9030 C   0  0  0  0  0  0  0  0  0  0  0  0
   26.9310   25.9450   12.5910 C   0  0  0  0  0  0  0  0  0  0  0  0
   25.6840   25.6860   11.9750 C   0  0  0  0  0  0  0  0  0  0  0  0
   24.4900   25.9410   12.6510 C   0  0  0  0  0  0  0  0  0  0  0  0
   24.5630   26.4480   13.9480 C   0  0  0  0  0  0  0  0  0  0  0  0
   25.8190   26.6970   14.5410 C   0  0  0  0  0  0  0  0  0  0  0  0
   23.1680   25.6170   12.0230 C   0  0  0  0  0  0  0  0  0  0  0  0
   30.7380   28.7510   16.2420 C   0  0  0  0  0  0  0  0  0  0  0  0
   30.1660   27.5460   15.5150 C   0  0  1  0  0  0  0  0  0  0  0  0
   29.6250   26.4740   16.4610 C   0  0  0  0  0  0  0  0  0  0  0  0
   28.7100   25.6260   15.5660 C   0  0  1  0  0  0  0  0  0  0  0  0
   28.2800   26.5900   14.5080 N   0  0  0  0  0  0  0  0  0  0  0  0
   28.9410   27.8810   14.6620 C   0  0  0  0  0  0  0  0  0  0  0  0
   29.3360   24.3190   14.9800 C   0  0  0  0  0  0  0  0  0  0  0  0
   28.4880   23.4310   14.6580 O   0  0  0  0  0  0  0  0  0  0  0  0
   30.5980   24.2730   14.9160 O   0  0  0  0  0  1  0  0  0  0  0  0
   25.7710   27.2800   15.8690 N   0  0  0  0  0  4  0  0  0  0  0  0
   25.5580   26.5130   16.8200 O   0  0  0  0  0  0  0  0  0  0  0  0
   25.8240   28.5170   15.9510 O   0  0  0  0  0  1  0  0  0  0  0  0
   28.1080   25.7050   11.7580 N   0  0  0  0  0  4  0  0  0  0  0  0
   28.6560   26.6920   11.2400 O   0  0  0  0  0  0  0  0  0  0  0  0
   28.3670   24.5260   11.4610 O   0  0  0  0  0  1  0  0  0  0  0  0
   25.6553   25.2796   10.9532 H   0  0  0  0  0  0  0  0  0  0  0  0
   23.6400   26.6542   14.5097 H   0  0  0  0  0  0  0  0  0  0  0  0
   22.4226   25.4343   12.8111 H   0  0  0  0  0  0  0  0  0  0  0  0
   22.8418   26.4618   11.3985 H   0  0  0  0  0  0  0  0  0  0  0  0
   23.2694   24.7171   11.3985 H   0  0  0  0  0  0  0  0  0  0  0  0
   30.6632   28.5935   17.3281 H   0  0  0  0  0  0  0  0  0  0  0  0
   31.7939   28.8809   15.9622 H   0  0  0  0  0  0  0  0  0  0  0  0
   30.1711   29.6512   15.9622 H   0  0  0  0  0  0  0  0  0  0  0  0
   31.0247   27.2029   14.9192 H   0  0  0  0  0  0  0  0  0  0  0  0
   30.4435   25.8657   16.8734 H   0  0  0  0  0  0  0  0  0  0  0  0
   29.0983   26.8980   17.3286 H   0  0  0  0  0  0  0  0  0  0  0  0
   27.8802   25.2031   16.1513 H   0  0  0  0  0  0  0  0  0  0  0  0
   29.2399   28.2902   13.6857 H   0  0  0  0  0  0  0  0  0  0  0  0
   28.2942   28.6456   15.1169 H   0  0  0  0  0  0  0  0  0  0  0  0
  2  1  2  0
  3  2  1  0
  4  3  2  0
  5  4  1  0
  6  5  2  0
  6  1  1  0
  7  4  1  0
  9  8  1  0
 10  9  1  0
 11 10  1  0
 12  1  1  0
 12 11  1  0
 13 12  1  0
 13  9  1  0
 14 11  1  0
 15 14  2  0
 16 14  1  0
 17  6  1  0
 18 17  2  0
 19 17  1  0
 20  2  1  0
 21 20  2  0
 22 20  1  0
  3 23  1  0
  5 24  1  0
  7 25  1  0
  7 26  1  0
  7 27  1  0
  8 28  1  0
  8 29  1  0
  8 30  1  0
  9 31  1  6
 10 32  1  0
 10 33  1  0
 11 34  1  1
 13 35  1  0
 13 36  1  0
M  CHG  5  16  -1  17   1  19  -1  20   1  22  -1
M  END
$$$$
=
     RDKit          3D

 14 14  0  0  0  0  0  0  0  0999 V2000
   20.3050   16.7870    5.2480 C   0  0  0  0  0  0  0  0  0  0  0  0
   21.3980   16.8780    6.0800 C   0  0  0  0  0  0  0  0  0  0  0  0
   21.4700   15.7950    6.9250 N   0  0  0  0  0  0  0  0  0  0  0  0
   20.4340   15.0480    6.6070 C   0  0  0  0  0  0  0  0  0  0  0  0
   19.7010   15.6070    5.6060 N   0  0  0  0  0  0  0  0  0  0  0  0
   19.7570   17.6780    4.1710 C   0  0  0  0  0  0  0  0  0  0  0  0
   19.5140   15.7470    2.8130 O   0  0  0  0  0  1  0  0  0  0  0  0
   19.5830   17.0100    2.7820 C   0  0  0  0  0  0  0  0  0  0  0  0
   19.5440   17.7830    1.7750 O   0  0  0  0  0  0  0  0  0  0  0  0
   22.1195   17.7083    6.0703 H   0  0  0  0  0  0  0  0  0  0  0  0
   20.1908   14.0904    7.0905 H   0  0  0  0  0  0  0  0  0  0  0  0
   18.8443   15.2143    5.1903 H   0  0  0  0  0  0  0  0  0  0  0  0
   18.7719   18.0411    4.4991 H   0  0  0  0  0  0  0  0  0  0  0  0
   20.4985   18.4786    4.0324 H   0  0  0  0  0  0  0  0  0  0  0  0
  2  1  2  0
  3  2  1  0
  4  3  2  0
  5  4  1  0
  5  1  1  0
  6  1  1  0
  8  7  1  0
  8  6  1  0
  9  8  2  0
  2 10  1  0
  4 11  1  0
  5 12  1  0
  6 13  1  0
  6 14  1  0
M  CHG  1   7  -1
M  END
$$$$
=
     RDKit          3D

 38 39  0  0  0  0  0  0  0  0999 V2000
   28.3730   26.7170   16.2860 C   0  0  2  0  0  0  0  0  0  0  0  0
   29.5920   24.7770   17.0580 O   0  0  0  0  0  1  0  0  0  0  0  0
   28.4400   25.2590   16.8190 C   0  0  0  0  0  0  0  0  0  0  0  0
   27.3200   24.6810   16.9810 O   0  0  0  0  0  0  0  0  0  0  0  0
   27.0320   27.3150   16.7270 C   0  0  1  0  0  0  0  0  0  0  0  0
   27.3320   28.6150   17.5240 C   0  0  0  0  0  0  0  0  0  0  0  0
   27.6080   29.6390   16.8230 O   0  0  0  0  0  0  0  0  0  0  0  0
   27.2920   28.5440   18.7930 O   0  0  0  0  0  1  0  0  0  0  0  0
   26.2370   27.6120   15.5470 O   0  0  0  0  0  0  0  0  0  0  0  0
   24.9830   27.1290   15.4990 C   0  0  0  0  0  0  0  0  0  0  0  0
   24.0380   27.3830   16.2310 O   0  0  0  0  0  0  0  0  0  0  0  0
   24.8930   26.1580   14.3750 C   0  0  0  0  0  0  0  0  0  0  0  0
   24.3070   26.5790   13.1730 C   0  0  0  0  0  0  0  0  0  0  0  0
   24.1910   25.6950   12.0970 C   0  0  0  0  0  0  0  0  0  0  0  0
   24.6550   24.3840   12.2190 C   0  0  0  0  0  0  0  0  0  0  0  0
   25.2340   23.9560   13.4140 C   0  0  0  0  0  0  0  0  0  0  0  0
   25.3520   24.8380   14.4900 C   0  0  0  0  0  0  0  0  0  0  0  0
   28.4410   26.7340   14.8350 O   0  0  0  0  0  0  0  0  0  0  0  0
   29.5000   26.1450   14.2510 C   0  0  0  0  0  0  0  0  0  0  0  0
   30.6850   26.2570   14.5260 O   0  0  0  0  0  0  0  0  0  0  0  0
   29.0110   25.2960   13.1300 C   0  0  0  0  0  0  0  0  0  0  0  0
   28.3640   25.9170   12.0530 C   0  0  0  0  0  0  0  0  0  0  0  0
   27.8770   25.1550   10.9880 C   0  0  0  0  0  0  0  0  0  0  0  0
   28.0300   23.7680   10.9960 C   0  0  0  0  0  0  0  0  0  0  0  0
   28.6670   23.1400   12.0680 C   0  0  0  0  0  0  0  0  0  0  0  0
   29.1550   23.9010   13.1330 C   0  0  0  0  0  0  0  0  0  0  0  0
   29.2198   27.2960   16.6832 H   0  0  0  0  0  0  0  0  0  0  0  0
   26.4700   26.6127   17.3601 H   0  0  0  0  0  0  0  0  0  0  0  0
   23.9367   27.6103   13.0764 H   0  0  0  0  0  0  0  0  0  0  0  0
   23.7344   26.0319   11.1546 H   0  0  0  0  0  0  0  0  0  0  0  0
   24.5640   23.6878   11.3722 H   0  0  0  0  0  0  0  0  0  0  0  0
   25.5980   22.9223   13.5086 H   0  0  0  0  0  0  0  0  0  0  0  0
   25.8067   24.4961   15.4314 H   0  0  0  0  0  0  0  0  0  0  0  0
   28.2390   27.0099   12.0461 H   0  0  0  0  0  0  0  0  0  0  0  0
   27.3732   25.6482   10.1436 H   0  0  0  0  0  0  0  0  0  0  0  0
   27.6482   23.1685   10.1565 H   0  0  0  0  0  0  0  0  0  0  0  0
   28.7846   22.0463   12.0740 H   0  0  0  0  0  0  0  0  0  0  0  0
   29.6544   23.4039   13.9777 H   0  0  0  0  0  0  0  0  0  0  0  0
  3  1  1  0
  3  2  1  0
  4  3  2  0
  5  1  1  0
  6  5  1  0
  7  6  2  0
  8  6  1  0
  9  5  1  0
 10  9  1  0
 11 10  2  0
 12 10  1  0
 13 12  2  0
 14 13  1  0
 15 14  2  0
 16 15  1  0
 17 16  2  0
 17 12  1  0
 18  1  1  0
 19 18  1  0
 20 19  2  0
 21 19  1  0
 22 21  2  0
 23 22  1  0
 24 23  2  0
 25 24  1  0
 26 25  2  0
 26 21  1  0
  1 27  1  1
  5 28  1  1
 13 29  1  0
 14 30  1  0
 15 31  1  0
 16 32  1  0
 17 33  1  0
 22 34  1  0
 23 35  1  0
 24 36  1  0
 25 37  1  0
 26 38  1  0
M  CHG  2   2  -1   8  -1
M  END
$$$$
=
     RDKit          3D

 23 23  0  0  0  0  0  0  0  0999 V2000
   19.6650   17.2070    2.7000 C   0  0  0  0  0  0  0  0  0  0  0  0
   19.4330   17.6970    1.6010 O   0  0  0  0  0  0  0  0  0  0  0  0
   20.2130   17.9630    3.8780 C   0  0  0  0  0  0  0  0  0  0  0  0
   21.6880   18.2790    3.6920 C   0  0  0  0  0  0  0  0  0  0  0  0
   23.5690   18.5610    5.0600 O   0  0  0  0  0  1  0  0  0  0  0  0
   22.5560   17.8310    4.8630 C   0  0  0  0  0  0  0  0  0  0  0  0
   22.1760   16.8030    5.4840 O   0  0  0  0  0  0  0  0  0  0  0  0
   19.4430   15.9050    3.0260 O   0  0  0  0  0  0  0  0  0  0  0  0
   19.0590   15.7120    4.3880 C   0  0  0  0  0  0  0  0  0  0  0  0
   17.5740   15.6590    4.4230 C   0  0  0  0  0  0  0  0  0  0  0  0
   16.6140   16.2390    5.2280 C   0  0  0  0  0  0  0  0  0  0  0  0
   15.3620   15.7830    4.7530 C   0  0  0  0  0  0  0  0  0  0  0  0
   15.6340   14.9520    3.6940 C   0  0  0  0  0  0  0  0  0  0  0  0
   16.9730   14.8650    3.4860 O   0  0  0  0  0  0  0  0  0  0  0  0
   19.6559   18.9048    3.9903 H   0  0  0  0  0  0  0  0  0  0  0  0
   20.1020   17.3366    4.7754 H   0  0  0  0  0  0  0  0  0  0  0  0
   22.0412   17.7717    2.7821 H   0  0  0  0  0  0  0  0  0  0  0  0
   21.7791   19.3729    3.6203 H   0  0  0  0  0  0  0  0  0  0  0  0
   19.4788   14.7689    4.7678 H   0  0  0  0  0  0  0  0  0  0  0  0
   19.4354   16.5303    5.0194 H   0  0  0  0  0  0  0  0  0  0  0  0
   16.7884   16.9216    6.0728 H   0  0  0  0  0  0  0  0  0  0  0  0
   14.3700   16.0419    5.1517 H   0  0  0  0  0  0  0  0  0  0  0  0
   14.8724   14.4291    3.0968 H   0  0  0  0  0  0  0  0  0  0  0  0
  2  1  2  0
  3  1  1  0
  4  3  1  0
  6  4  1  0
  6  5  1  0
  7  6  2  0
  8  1  1  0
  9  8  1  0
 10  9  1  0
 11 10  2  0
 12 11  1  0
 13 12  2  0
 14 13  1  0
 14 10  1  0
  3 15  1  0
  3 16  1  0
  4 17  1  0
  4 18  1  0
  9 19  1  0
  9 20  1  0
 11 21  1  0
 12 22  1  0
 13 23  1  0
M  CHG  1   5  -1
M  END
$$$$
=
     RDKit          3D

 33 34  0  0  0  0  0  0  0  0999 V2000
   14.6540   14.4430    4.0100 N   0  0  0  0  0  0  0  0  0  0  0  0
   15.2570   13.3930    3.3410 C   0  0  0  0  0  0  0  0  0  0  0  0
   14.2840   12.5140    2.8690 C   0  0  0  0  0  0  0  0  0  0  0  0
   13.0790   13.0780    3.3030 C   0  0  0  0  0  0  0  0  0  0  0  0
   13.2930   14.2200    3.9860 C   0  0  0  0  0  0  0  0  0  0  0  0
   12.0490   14.7400    4.4050 C   0  0  0  0  0  0  0  0  0  0  0  0
   11.1450   13.8210    3.9110 C   0  0  0  0  0  0  0  0  0  0  0  0
   11.7510   12.7970    3.2340 O   0  0  0  0  0  0  0  0  0  0  0  0
    9.6710   13.7430    3.9790 C   0  0  0  0  0  0  0  0  0  0  0  0
   16.8000   13.1590    3.1020 C   0  0  0  0  0  0  0  0  0  0  0  0
   17.5710   14.1370    3.3310 O   0  0  0  0  0  0  0  0  0  0  0  0
   17.1340   12.0040    2.7030 O   0  0  0  0  0  1  0  0  0  0  0  0
   15.2470   15.5890    4.6670 C   0  0  0  0  0  0  0  0  0  0  0  0
   15.7290   15.2960    6.0950 C   0  0  0  0  0  0  0  0  0  0  0  0
   18.2050   15.1810    6.5270 C   0  0  0  0  0  0  0  0  0  0  0  0
   16.9740   16.0920    6.5270 C   0  0  0  0  0  0  0  0  0  0  0  0
   17.2300   17.2840    5.6010 C   0  0  0  0  0  0  0  0  0  0  0  0
   14.4295   11.5905    2.2894 H   0  0  0  0  0  0  0  0  0  0  0  0
   11.8490   15.6539    4.9836 H   0  0  0  0  0  0  0  0  0  0  0  0
    9.3529   13.7262    5.0319 H   0  0  0  0  0  0  0  0  0  0  0  0
    9.2339   14.6193    3.4779 H   0  0  0  0  0  0  0  0  0  0  0  0
    9.3289   12.8255    3.4779 H   0  0  0  0  0  0  0  0  0  0  0  0
   16.1084   15.9246    4.0710 H   0  0  0  0  0  0  0  0  0  0  0  0
   14.4651   16.3591    4.7415 H   0  0  0  0  0  0  0  0  0  0  0  0
   14.9104   15.5359    6.7895 H   0  0  0  0  0  0  0  0  0  0  0  0
   16.0151   14.2341    6.1158 H   0  0  0  0  0  0  0  0  0  0  0  0
   18.4997   14.9629    7.5641 H   0  0  0  0  0  0  0  0  0  0  0  0
   17.9655   14.2409    6.0085 H   0  0  0  0  0  0  0  0  0  0  0  0
   19.0340   15.6848    6.0085 H   0  0  0  0  0  0  0  0  0  0  0  0
   16.7879   16.4739    7.5416 H   0  0  0  0  0  0  0  0  0  0  0  0
   17.4230   18.1828    6.2051 H   0  0  0  0  0  0  0  0  0  0  0  0
   18.1036   17.0742    4.9663 H   0  0  0  0  0  0  0  0  0  0  0  0
   16.3473   17.4514    4.9663 H   0  0  0  0  0  0  0  0  0  0  0  0
  2  1  1  0
  3  2  2  0
  4  3  1  0
  5  4  2  0
  5  1  1  0
  6  5  1  0
  7  6  2  0
  8  7  1  0
  8  4  1  0
  9  7  1  0
 10  2  1  0
 11 10  2  0
 12 10  1  0
 13  1  1  0
 14 13  1  0
 16 14  1  0
 16 15  1  0
 17 16  1  0
  3 18  1  0
  6 19  1  0
  9 20  1  0
  9 21  1  0
  9 22  1  0
 13 23  1  0
 13 24  1  0
 14 25  1  0
 14 26  1  0
 15 27  1  0
 15 28  1  0
 15 29  1  0
 16 30  1  0
 17 31  1  0
 17 32  1  0
 17 33  1  0
M  CHG  1  12  -1
M  END
$$$$
=
     RDKit          3D

 35 37  0  0  0  0  0  0  0  0999 V2000
   14.5200   15.2180    4.5230 C   0  0  1  0  0  0  0  0  0  0  0  0
   15.2980   15.1440    5.8620 C   0  0  0  0  0  0  0  0  0  0  0  0
   16.1360   16.3410    5.3490 C   0  0  2  0  0  0  0  0  0  0  0  0
   15.8060   15.8390    3.9230 C   0  0  0  0  0  0  0  0  0  0  0  0
   12.7960   13.3150    3.9850 C   0  0  0  0  0  0  0  0  0  0  0  0
   12.8610   12.1310    3.2860 C   0  0  0  0  0  0  0  0  0  0  0  0
   14.1380   12.0390    2.8350 N   0  0  0  0  0  0  0  0  0  0  0  0
   14.9200   13.0750    3.1890 N   0  0  0  0  0  0  0  0  0  0  0  0
   14.0890   13.8660    3.8880 C   0  0  0  0  0  0  0  0  0  0  0  0
   10.7780   14.6530    4.0510 O   0  0  0  0  0  1  0  0  0  0  0  0
   11.5440   13.8950    4.7200 C   0  0  0  0  0  0  0  0  0  0  0  0
   11.4010   13.5570    5.9350 O   0  0  0  0  0  0  0  0  0  0  0  0
   17.5260   16.3530    5.7410 O   0  0  0  0  0  0  0  0  0  0  0  0
   18.0870   17.6480    5.9460 C   0  0  0  0  0  0  0  0  0  0  0  0
   19.3120   17.8450    5.0860 C   0  0  0  0  0  0  0  0  0  0  0  0
   20.4920   18.3880    5.6130 C   0  0  0  0  0  0  0  0  0  0  0  0
   21.6040   18.6030    4.7960 C   0  0  0  0  0  0  0  0  0  0  0  0
   21.5460   18.2860    3.4410 C   0  0  0  0  0  0  0  0  0  0  0  0
   20.3750   17.7580    2.9020 C   0  0  0  0  0  0  0  0  0  0  0  0
   19.2630   17.5420    3.7180 C   0  0  0  0  0  0  0  0  0  0  0  0
   13.5337   15.7009    4.4595 H   0  0  0  0  0  0  0  0  0  0  0  0
   14.6946   15.3544    6.7574 H   0  0  0  0  0  0  0  0  0  0  0  0
   15.7667   14.2126    6.2126 H   0  0  0  0  0  0  0  0  0  0  0  0
   15.9376   17.3794    5.6530 H   0  0  0  0  0  0  0  0  0  0  0  0
   15.6312   16.6348    3.1840 H   0  0  0  0  0  0  0  0  0  0  0  0
   16.5206   15.2431    3.3362 H   0  0  0  0  0  0  0  0  0  0  0  0
   12.0468   11.4089    3.1260 H   0  0  0  0  0  0  0  0  0  0  0  0
   14.4781   11.2465    2.2718 H   0  0  0  0  0  0  0  0  0  0  0  0
   17.3379   18.4105    5.6864 H   0  0  0  0  0  0  0  0  0  0  0  0
   18.3795   17.7419    7.0022 H   0  0  0  0  0  0  0  0  0  0  0  0
   20.5426   18.6474    6.6808 H   0  0  0  0  0  0  0  0  0  0  0  0
   22.5266   19.0231    5.2230 H   0  0  0  0  0  0  0  0  0  0  0  0
   22.4228   18.4522    2.7979 H   0  0  0  0  0  0  0  0  0  0  0  0
   20.3264   17.5108    1.8312 H   0  0  0  0  0  0  0  0  0  0  0  0
   18.3400   17.1303    3.2837 H   0  0  0  0  0  0  0  0  0  0  0  0
  2  1  1  0
  3  2  1  0
  4  3  1  0
  4  1  1  0
  6  5  2  0
  7  6  1  0
  8  7  1  0
  9  8  2  0
  9  5  1  0
  9  1  1  0
 11 10  1  0
 11  5  1  0
 12 11  2  0
 13  3  1  0
 14 13  1  0
 15 14  1  0
 16 15  2  0
 17 16  1  0
 18 17  2  0
 19 18  1  0
 20 19  2  0
 20 15  1  0
  1 21  1  1
  2 22  1  0
  2 23  1  0
  3 24  1  6
  4 25  1  0
  4 26  1  0
  6 27  1  0
  7 28  1  0
 14 29  1  0
 14 30  1  0
 16 31  1  0
 17 32  1  0
 18 33  1  0
 19 34  1  0
 20 35  1  0
M  CHG  1  10  -1
M  END
$$$$
=
     RDKit          3D

 44 45  0  0  0  0  0  0  0  0999 V2000
   29.0620   27.9400   14.8040 C   0  0  0  0  0  0  0  0  0  0  0  0
   28.5830   27.2520   13.6810 C   0  0  0  0  0  0  0  0  0  0  0  0
   28.8550   25.8950   13.5020 C   0  0  0  0  0  0  0  0  0  0  0  0
   28.3520   25.2560   12.3570 N   0  0  0  0  0  0  0  0  0  0  0  0
   28.6030   23.9930   12.2110 C   0  0  0  0  0  0  0  0  0  0  0  0
   29.3420   23.2590   13.1180 N   0  0  0  0  0  0  0  0  0  0  0  0
   29.8920   23.7970   14.2510 C   0  0  0  0  0  0  0  0  0  0  0  0
   30.5770   23.1690   15.0510 O   0  0  0  0  0  0  0  0  0  0  0  0
   29.6160   25.2300   14.4620 C   0  0  0  0  0  0  0  0  0  0  0  0
   30.1070   25.8950   15.5910 C   0  0  0  0  0  0  0  0  0  0  0  0
   29.8320   27.2540   15.7690 C   0  0  0  0  0  0  0  0  0  0  0  0
   27.5300   29.6470   15.4670 C   0  0  0  0  0  0  0  0  0  0  0  0
   28.8360   29.2730   15.0500 O   0  0  0  0  0  0  0  0  0  0  0  0
   30.2660   27.9990   16.8390 O   0  0  0  0  0  0  0  0  0  0  0  0
   29.6280   27.7770   18.0900 C   0  0  0  0  0  0  0  0  0  0  0  0
   28.1410   23.1650   11.0470 C   0  0  0  0  0  0  0  0  0  0  0  0
   26.4490   22.5400   11.0570 S   0  0  0  0  0  0  0  0  0  0  0  0
   25.6080   24.0840   10.5280 C   0  0  0  0  0  0  0  0  0  0  0  0
   24.7720   24.7000   11.6480 C   0  0  0  0  0  0  0  0  0  0  0  0
   23.7980   25.4120   11.4190 O   0  0  0  0  0  0  0  0  0  0  0  0
   25.2250   24.3970   12.9190 N   0  0  0  0  0  0  0  0  0  0  0  0
   24.8640   25.2160   14.1010 C   0  0  1  0  0  0  0  0  0  0  0  0
   23.4690   24.8350   14.5730 C   0  0  0  0  0  0  0  0  0  0  0  0
   25.9170   25.0950   15.2690 C   0  0  0  0  0  0  0  0  0  0  0  0
   26.0700   26.1090   15.9990 O   0  0  0  0  0  0  0  0  0  0  0  0
   26.5050   23.9640   15.3410 O   0  0  0  0  0  1  0  0  0  0  0  0
   27.9844   27.7889   12.9304 H   0  0  0  0  0  0  0  0  0  0  0  0
   29.4868   22.2562   12.9329 H   0  0  0  0  0  0  0  0  0  0  0  0
   30.7068   25.3507   16.3353 H   0  0  0  0  0  0  0  0  0  0  0  0
   27.4856   29.6597   16.5660 H   0  0  0  0  0  0  0  0  0  0  0  0
   27.2940   30.6488   15.0789 H   0  0  0  0  0  0  0  0  0  0  0  0
   26.7995   28.9220   15.0789 H   0  0  0  0  0  0  0  0  0  0  0  0
   30.3253   28.0196   18.9054 H   0  0  0  0  0  0  0  0  0  0  0  0
   28.7374   28.4181   18.1663 H   0  0  0  0  0  0  0  0  0  0  0  0
   29.3277   26.7215   18.1663 H   0  0  0  0  0  0  0  0  0  0  0  0
   28.2544   23.7821   10.1435 H   0  0  0  0  0  0  0  0  0  0  0  0
   28.7640   22.2597   11.0948 H   0  0  0  0  0  0  0  0  0  0  0  0
   26.3700   24.8123   10.2135 H   0  0  0  0  0  0  0  0  0  0  0  0
   24.9289   23.8314    9.7003 H   0  0  0  0  0  0  0  0  0  0  0  0
   25.8329   23.5757   13.0487 H   0  0  0  0  0  0  0  0  0  0  0  0
   24.8711   26.2729   13.7963 H   0  0  0  0  0  0  0  0  0  0  0  0
   23.4432   24.8279   15.6727 H   0  0  0  0  0  0  0  0  0  0  0  0
   22.7409   25.5672   14.1938 H   0  0  0  0  0  0  0  0  0  0  0  0
   23.2142   23.8344   14.1938 H   0  0  0  0  0  0  0  0  0  0  0  0
  2  1  2  0
  3  2  1  0
  4  3  1  0
  5  4  2  0
  6  5  1  0
  7  6  1  0
  8  7  2  0
  9  7  1  0
  9  3  2  0
 10  9  1  0
 11 10  2  0
 11  1  1  0
 13 12  1  0
 13  1  1  0
 14 11  1  0
 15 14  1  0
 16  5  1  0
 17 16  1  0
 18 17  1  0
 19 18  1  0
 20 19  2  0
 21 19  1  0
 22 21  1  0
 23 22  1  0
 24 22  1  0
 25 24  2  0
 26 24  1  0
  2 27  1  0
  6 28  1  0
 10 29  1  0
 12 30  1  0
 12 31  1  0
 12 32  1  0
 15 33  1  0
 15 34  1  0
 15 35  1  0
 16 36  1  0
 16 37  1  0
 18 38  1  0
 18 39  1  0
 21 40  1  0
 22 41  1  6
 23 42  1  0
 23 43  1  0
 23 44  1  0
M  CHG  1  26  -1
M  END
$$$$
=
     RDKit          3D

 29 29  0  0  0  0  0  0  0  0999 V2000
   18.0440   15.4520    5.1250 C   0  0  0  0  0  0  0  0  0  0  0  0
   16.9050   15.8520    5.8760 C   0  0  0  0  0  0  0  0  0  0  0  0
   15.8180   15.4200    5.1590 C   0  0  0  0  0  0  0  0  0  0  0  0
   16.3100   14.8220    4.0340 N   0  0  0  0  0  0  0  0  0  0  0  0
   17.6670   14.8060    4.0050 N   0  0  0  0  0  0  0  0  0  0  0  0
   19.9550   15.4450    6.5650 O   0  0  0  0  0  0  0  0  0  0  0  0
   19.4570   15.6760    5.4690 C   0  0  0  0  0  0  0  0  0  0  0  0
   20.1590   16.1820    4.4060 O   0  0  0  0  0  0  0  0  0  0  0  0
   20.2660   17.6110    4.1970 C   0  0  0  0  0  0  0  0  0  0  0  0
   21.7260   18.0470    4.0410 C   0  0  0  0  0  0  0  0  0  0  0  0
   19.5440   18.3940    5.2980 C   0  0  0  0  0  0  0  0  0  0  0  0
   19.5380   17.8610    2.8650 C   0  0  0  0  0  0  0  0  0  0  0  0
   15.5900   14.1740    2.9560 C   0  0  0  0  0  0  0  0  0  0  0  0
   15.6590   12.6650    3.0220 C   0  0  0  0  0  0  0  0  0  0  0  0
   16.5630   12.1270    2.3170 O   0  0  0  0  0  0  0  0  0  0  0  0
   14.7940   12.1020    3.7540 O   0  0  0  0  0  1  0  0  0  0  0  0
   16.8970   16.3948    6.8327 H   0  0  0  0  0  0  0  0  0  0  0  0
   14.7593   15.5330    5.4356 H   0  0  0  0  0  0  0  0  0  0  0  0
   22.1767   18.1816    5.0354 H   0  0  0  0  0  0  0  0  0  0  0  0
   22.2819   17.2757    3.4878 H   0  0  0  0  0  0  0  0  0  0  0  0
   21.7679   18.9969    3.4878 H   0  0  0  0  0  0  0  0  0  0  0  0
   19.8765   18.0334    6.2826 H   0  0  0  0  0  0  0  0  0  0  0  0
   19.7788   19.4643    5.2010 H   0  0  0  0  0  0  0  0  0  0  0  0
   18.4582   18.2466    5.2010 H   0  0  0  0  0  0  0  0  0  0  0  0
   18.5152   18.2122    3.0664 H   0  0  0  0  0  0  0  0  0  0  0  0
   20.0808   18.6242    2.2881 H   0  0  0  0  0  0  0  0  0  0  0  0
   19.4974   16.9253    2.2881 H   0  0  0  0  0  0  0  0  0  0  0  0
   14.5344   14.4791    3.0066 H   0  0  0  0  0  0  0  0  0  0  0  0
   16.0625   14.4838    2.0122 H   0  0  0  0  0  0  0  0  0  0  0  0
  2  1  1  0
  3  2  2  0
  4  3  1  0
  5  4  1  0
  5  1  2  0
  7  1  1  0
  7  6  2  0
  8  7  1  0
  9  8  1  0
 10  9  1  0
 11  9  1  0
 12  9  1  0
 13  4  1  0
 14 13  1  0
 15 14  2  0
 16 14  1  0
  2 17  1  0
  3 18  1  0
 10 19  1  0
 10 20  1  0
 10 21  1  0
 11 22  1  0
 11 23  1  0
 11 24  1  0
 12 25  1  0
 12 26  1  0
 12 27  1  0
 13 28  1  0
 13 29  1  0
M  CHG  1  16  -1
M  END
$$$$
=
     RDKit          3D

 23 23  0  0  0  0  0  0  0  0999 V2000
   19.7930   15.9420    4.6410 C   0  0  0  0  0  0  0  0  0  0  0  0
   18.7850   15.1100    4.9610 C   0  0  0  0  0  0  0  0  0  0  0  0
   17.3940   15.3130    4.7340 C   0  0  0  0  0  0  0  0  0  0  0  0
   16.4130   16.0040    5.4390 C   0  0  0  0  0  0  0  0  0  0  0  0
   15.1820   15.8590    4.7530 C   0  0  0  0  0  0  0  0  0  0  0  0
   15.4550   15.0720    3.6670 C   0  0  0  0  0  0  0  0  0  0  0  0
   16.7630   14.7280    3.6510 O   0  0  0  0  0  0  0  0  0  0  0  0
   19.5770   17.2510    3.9660 C   0  0  0  0  0  0  0  0  0  0  0  0
   19.4050   18.2710    4.6360 O   0  0  0  0  0  0  0  0  0  0  0  0
   19.5630   17.2740    2.4610 C   0  0  0  0  0  0  0  0  0  0  0  0
   21.2320   15.6180    4.9490 C   0  0  0  0  0  0  0  0  0  0  0  0
   22.3180   17.2100    6.3100 O   0  0  0  0  0  1  0  0  0  0  0  0
   21.6040   16.1680    6.3230 C   0  0  0  0  0  0  0  0  0  0  0  0
   21.1550   15.5110    7.3040 O   0  0  0  0  0  0  0  0  0  0  0  0
   19.0671   14.1675    5.4530 H   0  0  0  0  0  0  0  0  0  0  0  0
   16.5673   16.5674    6.3711 H   0  0  0  0  0  0  0  0  0  0  0  0
   14.2095   16.2892    5.0345 H   0  0  0  0  0  0  0  0  0  0  0  0
   14.7153   14.7630    2.9138 H   0  0  0  0  0  0  0  0  0  0  0  0
   19.0204   18.1653    2.1129 H   0  0  0  0  0  0  0  0  0  0  0  0
   20.5964   17.3037    2.0851 H   0  0  0  0  0  0  0  0  0  0  0  0
   19.0620   16.3697    2.0851 H   0  0  0  0  0  0  0  0  0  0  0  0
   21.3698   14.5267    4.9432 H   0  0  0  0  0  0  0  0  0  0  0  0
   21.8785   16.0777    4.1870 H   0  0  0  0  0  0  0  0  0  0  0  0
  2  1  2  0
  3  2  1  0
  4  3  2  0
  5  4  1  0
  6  5  2  0
  7  6  1  0
  7  3  1  0
  8  1  1  0
  9  8  2  0
 10  8  1  0
 11  1  1  0
 13 11  1  0
 13 12  1  0
 14 13  2  0
  2 15  1  0
  4 16  1  0
  5 17  1  0
  6 18  1  0
 10 19  1  0
 10 20  1  0
 10 21  1  0
 11 22  1  0
 11 23  1  0
M  CHG  1  12  -1
M  END
$$$$
=
     RDKit          3D

 34 36  0  0  0  0  0  0  0  0999 V2000
   14.9590   14.6080    4.1220 C   0  0  0  0  0  0  0  0  0  0  0  0
   15.1020   15.6460    4.9650 N   0  0  0  0  0  0  0  0  0  0  0  0
   16.4340   15.9000    5.0080 N   0  0  0  0  0  0  0  0  0  0  0  0
   17.1400   15.0220    4.2240 C   0  0  0  0  0  0  0  0  0  0  0  0
   16.2220   14.1830    3.6400 C   0  0  0  0  0  0  0  0  0  0  0  0
   18.5810   15.0880    4.1310 C   0  0  0  0  0  0  0  0  0  0  0  0
   19.2150   14.2680    3.4700 O   0  0  0  0  0  0  0  0  0  0  0  0
   19.1660   16.1220    4.8820 N   0  0  0  0  0  0  0  0  0  0  0  0
   18.4170   16.9910    5.6700 C   0  0  0  0  0  0  0  0  0  0  0  0
   17.0850   16.8840    5.7340 C   0  0  0  0  0  0  0  0  0  0  0  0
   11.0920   12.9730    3.1970 C   0  0  0  0  0  0  0  0  0  0  0  0
   12.2520   12.3810    2.7010 C   0  0  0  0  0  0  0  0  0  0  0  0
   13.5110   12.9130    3.0040 C   0  0  0  0  0  0  0  0  0  0  0  0
   13.6350   14.0530    3.8100 C   0  0  0  0  0  0  0  0  0  0  0  0
   12.4620   14.6410    4.3050 C   0  0  0  0  0  0  0  0  0  0  0  0
   11.2010   14.1070    4.0020 C   0  0  0  0  0  0  0  0  0  0  0  0
   10.0080   11.4240    1.7600 C   0  0  0  0  0  0  0  0  0  0  0  0
    9.9280   12.3570    2.8280 O   0  0  0  0  0  0  0  0  0  0  0  0
   20.6320   16.3200    4.8340 C   0  0  0  0  0  0  0  0  0  0  0  0
   21.3820   16.0430    6.1560 C   0  0  0  0  0  0  0  0  0  0  0  0
   22.2950   16.8760    6.4350 O   0  0  0  0  0  0  0  0  0  0  0  0
   21.0030   15.0250    6.8030 O   0  0  0  0  0  1  0  0  0  0  0  0
   16.4248   13.3553    2.9444 H   0  0  0  0  0  0  0  0  0  0  0  0
   18.9269   17.7760    6.2477 H   0  0  0  0  0  0  0  0  0  0  0  0
   16.5069   17.5771    6.3629 H   0  0  0  0  0  0  0  0  0  0  0  0
   12.1776   11.4866    2.0650 H   0  0  0  0  0  0  0  0  0  0  0  0
   14.4148   12.4300    2.6043 H   0  0  0  0  0  0  0  0  0  0  0  0
   12.5321   15.5356    4.9413 H   0  0  0  0  0  0  0  0  0  0  0  0
   10.2939   14.5845    4.4009 H   0  0  0  0  0  0  0  0  0  0  0  0
   10.0953   10.4062    2.1680 H   0  0  0  0  0  0  0  0  0  0  0  0
    9.1005   11.4949    1.1424 H   0  0  0  0  0  0  0  0  0  0  0  0
   10.8902   11.6484    1.1424 H   0  0  0  0  0  0  0  0  0  0  0  0
   21.0402   15.6477    4.0650 H   0  0  0  0  0  0  0  0  0  0  0  0
   20.7866   17.3870    4.6158 H   0  0  0  0  0  0  0  0  0  0  0  0
  2  1  2  0
  3  2  1  0
  4  3  1  0
  5  1  1  0
  5  4  2  0
  6  4  1  0
  7  6  2  0
  8  6  1  0
  9  8  1  0
 10  3  1  0
 10  9  2  0
 12 11  2  0
 13 12  1  0
 14 13  2  0
 14  1  1  0
 15 14  1  0
 16 15  2  0
 16 11  1  0
 18 17  1  0
 18 11  1  0
 19  8  1  0
 20 19  1  0
 21 20  2  0
 22 20  1  0
  5 23  1  0
  9 24  1  0
 10 25  1  0
 12 26  1  0
 13 27  1  0
 15 28  1  0
 16 29  1  0
 17 30  1  0
 17 31  1  0
 17 32  1  0
 19 33  1  0
 19 34  1  0
M  CHG  1  22  -1
M  END
$$$$
=
     RDKit          3D

 22 22  0  0  0  0  0  0  0  0999 V2000
   19.8690   16.4630    4.2070 C   0  0  2  0  0  0  0  0  0  0  0  0
   20.2400   17.5850    3.2090 C   0  0  0  0  0  0  0  0  0  0  0  0
   19.4550   17.7300    2.2230 O   0  0  0  0  0  0  0  0  0  0  0  0
   21.3680   18.1410    3.3730 O   0  0  0  0  0  1  0  0  0  0  0  0
   21.0670   15.7690    4.8870 C   0  0  0  0  0  0  0  0  0  0  0  0
   21.0640   15.4150    7.2180 O   0  0  0  0  0  1  0  0  0  0  0  0
   21.5640   16.1300    6.2910 C   0  0  0  0  0  0  0  0  0  0  0  0
   22.4300   17.0400    6.4000 O   0  0  0  0  0  0  0  0  0  0  0  0
   18.8310   15.4870    3.6280 C   0  0  0  0  0  0  0  0  0  0  0  0
   17.5440   15.4400    4.4250 C   0  0  0  0  0  0  0  0  0  0  0  0
   17.3440   15.8310    5.7370 C   0  0  0  0  0  0  0  0  0  0  0  0
   15.9980   15.6480    6.1620 C   0  0  0  0  0  0  0  0  0  0  0  0
   15.2100   15.1340    5.1580 C   0  0  0  0  0  0  0  0  0  0  0  0
   16.0890   14.8860    3.7120 S   0  0  0  0  0  0  0  0  0  0  0  0
   19.3769   16.9804    5.0437 H   0  0  0  0  0  0  0  0  0  0  0  0
   20.8149   14.6989    4.9225 H   0  0  0  0  0  0  0  0  0  0  0  0
   21.9027   16.1214    4.2646 H   0  0  0  0  0  0  0  0  0  0  0  0
   18.5940   15.7985    2.6000 H   0  0  0  0  0  0  0  0  0  0  0  0
   19.2739   14.4807    3.6641 H   0  0  0  0  0  0  0  0  0  0  0  0
   18.1376   16.2383    6.3806 H   0  0  0  0  0  0  0  0  0  0  0  0
   15.6320   15.8884    7.1711 H   0  0  0  0  0  0  0  0  0  0  0  0
   14.1394   14.9088    5.2721 H   0  0  0  0  0  0  0  0  0  0  0  0
  2  1  1  0
  3  2  2  0
  4  2  1  0
  5  1  1  0
  7  5  1  0
  7  6  1  0
  8  7  2  0
  9  1  1  0
 10  9  1  0
 11 10  2  0
 12 11  1  0
 13 12  2  0
 14 13  1  0
 14 10  1  0
  1 15  1  1
  5 16  1  0
  5 17  1  0
  9 18  1  0
  9 19  1  0
 11 20  1  0
 12 21  1  0
 13 22  1  0
M  CHG  2   4  -1   6  -1
M  END
$$$$
=
     RDKit          3D

 25 25  0  0  0  0  0  0  0  0999 V2000
   18.2160   15.1060    3.8210 C   0  0  0  0  0  0  0  0  0  0  0  0
   18.5670   16.0130    3.0670 O   0  0  0  0  0  0  0  0  0  0  0  0
   16.7730   14.7360    3.8790 C   0  0  0  0  0  0  0  0  0  0  0  0
   16.3180   13.6450    3.1280 C   0  0  0  0  0  0  0  0  0  0  0  0
   14.9760   13.2690    3.1690 C   0  0  0  0  0  0  0  0  0  0  0  0
   14.0800   13.9750    3.9660 C   0  0  0  0  0  0  0  0  0  0  0  0
   14.5240   15.0600    4.7220 C   0  0  0  0  0  0  0  0  0  0  0  0
   15.8700   15.4600    4.6850 C   0  0  0  0  0  0  0  0  0  0  0  0
   16.3090   16.6290    5.5230 C   0  0  0  0  0  0  0  0  0  0  0  0
   19.2080   14.2310    4.5730 C   0  0  0  0  0  0  0  0  0  0  0  0
   19.5200   14.7480    5.9700 C   0  0  0  0  0  0  0  0  0  0  0  0
   21.5650   15.4790    5.0680 O   0  0  0  0  0  1  0  0  0  0  0  0
   20.9170   15.3400    6.1430 C   0  0  0  0  0  0  0  0  0  0  0  0
   21.2770   15.5910    7.3260 O   0  0  0  0  0  0  0  0  0  0  0  0
   17.0244   13.0807    2.5014 H   0  0  0  0  0  0  0  0  0  0  0  0
   14.6256   12.4145    2.5715 H   0  0  0  0  0  0  0  0  0  0  0  0
   13.0215   13.6775    3.9999 H   0  0  0  0  0  0  0  0  0  0  0  0
   13.8113   15.6091    5.3549 H   0  0  0  0  0  0  0  0  0  0  0  0
   16.2129   16.3730    6.5885 H   0  0  0  0  0  0  0  0  0  0  0  0
   17.3584   16.8688    5.2967 H   0  0  0  0  0  0  0  0  0  0  0  0
   15.6768   17.5003    5.2967 H   0  0  0  0  0  0  0  0  0  0  0  0
   18.7862   13.2189    4.6603 H   0  0  0  0  0  0  0  0  0  0  0  0
   20.1488   14.2371    4.0031 H   0  0  0  0  0  0  0  0  0  0  0  0
   18.7857   15.5290    6.2165 H   0  0  0  0  0  0  0  0  0  0  0  0
   19.4714   13.8756    6.6382 H   0  0  0  0  0  0  0  0  0  0  0  0
  2  1  2  0
  3  1  1  0
  4  3  2  0
  5  4  1  0
  6  5  2  0
  7  6  1  0
  8  7  2  0
  8  3  1  0
  9  8  1  0
 10  1  1  0
 11 10  1  0
 13 12  1  0
 13 11  1  0
 14 13  2  0
  4 15  1  0
  5 16  1  0
  6 17  1  0
  7 18  1  0
  9 19  1  0
  9 20  1  0
  9 21  1  0
 10 22  1  0
 10 23  1  0
 11 24  1  0
 11 25  1  0
M  CHG  1  12  -1
M  END
$$$$
=
     RDKit          3D

 31 31  0  0  0  0  0  0  0  0999 V2000
   14.1930   13.4850    3.9300 C   0  0  0  0  0  0  0  0  0  0  0  0
   15.4270   13.2070    3.3270 C   0  0  0  0  0  0  0  0  0  0  0  0
   16.4670   14.1390    3.3800 C   0  0  0  0  0  0  0  0  0  0  0  0
   16.3070   15.3620    4.0370 C   0  0  0  0  0  0  0  0  0  0  0  0
   15.0820   15.6440    4.6320 C   0  0  0  0  0  0  0  0  0  0  0  0
   14.0350   14.7150    4.5800 C   0  0  0  0  0  0  0  0  0  0  0  0
   12.1880   12.6350    2.6420 C   0  0  0  0  0  0  0  0  0  0  0  0
   13.0560   12.4920    3.8870 C   0  0  1  0  0  0  0  0  0  0  0  0
   13.5680   11.1590    3.9410 O   0  0  0  0  0  0  0  0  0  0  0  0
   17.4110   16.1600    4.0030 O   0  0  0  0  0  0  0  0  0  0  0  0
   18.3750   16.1910    5.0900 C   0  0  0  0  0  0  0  0  0  0  0  0
   17.5770   15.7550    6.3330 C   0  0  0  0  0  0  0  0  0  0  0  0
   18.8700   17.6190    5.3350 C   0  0  0  0  0  0  0  0  0  0  0  0
   19.4830   15.0900    4.9690 C   0  0  0  0  0  0  0  0  0  0  0  0
   19.8420   14.5170    6.0390 O   0  0  0  0  0  0  0  0  0  0  0  0
   19.9200   14.8940    3.7930 O   0  0  0  0  0  1  0  0  0  0  0  0
   15.5781   12.2487    2.8084 H   0  0  0  0  0  0  0  0  0  0  0  0
   17.4273   13.9061    2.8967 H   0  0  0  0  0  0  0  0  0  0  0  0
   14.9341   16.6044    5.1476 H   0  0  0  0  0  0  0  0  0  0  0  0
   13.0736   14.9555    5.0573 H   0  0  0  0  0  0  0  0  0  0  0  0
   11.1435   12.8071    2.9410 H   0  0  0  0  0  0  0  0  0  0  0  0
   12.5431   13.4868    2.0433 H   0  0  0  0  0  0  0  0  0  0  0  0
   12.2511   11.7144    2.0433 H   0  0  0  0  0  0  0  0  0  0  0  0
   12.4241   12.7037    4.7622 H   0  0  0  0  0  0  0  0  0  0  0  0
   13.6736   10.8841    4.8862 H   0  0  0  0  0  0  0  0  0  0  0  0
   18.1215   16.0525    7.2413 H   0  0  0  0  0  0  0  0  0  0  0  0
   16.5891   16.2387    6.3228 H   0  0  0  0  0  0  0  0  0  0  0  0
   17.4504   14.6624    6.3228 H   0  0  0  0  0  0  0  0  0  0  0  0
   18.9342   17.8042    6.4174 H   0  0  0  0  0  0  0  0  0  0  0  0
   19.8643   17.7452    4.8818 H   0  0  0  0  0  0  0  0  0  0  0  0
   18.1671   18.3335    4.8818 H   0  0  0  0  0  0  0  0  0  0  0  0
  2  1  2  0
  3  2  1  0
  4  3  2  0
  5  4  1  0
  6  5  2  0
  6  1  1  0
  8  7  1  0
  8  1  1  0
  9  8  1  0
 10  4  1  0
 11 10  1  0
 12 11  1  0
 13 11  1  0
 14 11  1  0
 15 14  2  0
 16 14  1  0
  2 17  1  0
  3 18  1  0
  5 19  1  0
  6 20  1  0
  7 21  1  0
  7 22  1  0
  7 23  1  0
  8 24  1  1
  9 25  1  0
 12 26  1  0
 12 27  1  0
 12 28  1  0
 13 29  1  0
 13 30  1  0
 13 31  1  0
M  CHG  1  16  -1
M  END
$$$$
=
     RDKit          3D

 26 27  0  0  0  0  0  0  0  0999 V2000
   18.4520   16.9840    5.1830 C   0  0  0  0  0  0  0  0  0  0  0  0
   17.2480   16.9670    5.9140 C   0  0  0  0  0  0  0  0  0  0  0  0
   16.1630   16.1680    5.5230 C   0  0  0  0  0  0  0  0  0  0  0  0
   16.2360   15.3540    4.3840 C   0  0  0  0  0  0  0  0  0  0  0  0
   17.4280   15.3960    3.6440 C   0  0  0  0  0  0  0  0  0  0  0  0
   18.5110   16.1940    4.0360 C   0  0  0  0  0  0  0  0  0  0  0  0
   19.5980   16.1650    3.2500 F   0  0  0  0  0  0  0  0  0  0  0  0
   15.1230   14.4660    3.9920 C   0  0  0  0  0  0  0  0  0  0  0  0
   15.3400   13.3990    3.1050 C   0  0  0  0  0  0  0  0  0  0  0  0
   14.2980   12.5460    2.7390 C   0  0  0  0  0  0  0  0  0  0  0  0
   13.0160   12.7430    3.2480 C   0  0  0  0  0  0  0  0  0  0  0  0
   12.7470   13.7900    4.1270 C   0  0  0  0  0  0  0  0  0  0  0  0
   13.8180   14.6390    4.4930 C   0  0  0  0  0  0  0  0  0  0  0  0
   12.0720   11.8640    2.8800 F   0  0  0  0  0  0  0  0  0  0  0  0
   11.3690   14.0230    4.6830 C   0  0  0  0  0  0  0  0  0  0  0  0
   11.1150   13.5980    5.8530 O   0  0  0  0  0  0  0  0  0  0  0  0
   10.5400   14.6200    3.9240 O   0  0  0  0  0  1  0  0  0  0  0  0
   20.7400   17.2650    5.8300 O   0  0  0  0  0  1  0  0  0  0  0  0
   19.6140   17.8260    5.6510 C   0  0  0  0  0  0  0  0  0  0  0  0
   19.3770   19.0610    5.8630 O   0  0  0  0  0  0  0  0  0  0  0  0
   17.1563   17.5949    6.8125 H   0  0  0  0  0  0  0  0  0  0  0  0
   15.2394   16.1805    6.1203 H   0  0  0  0  0  0  0  0  0  0  0  0
   17.5142   14.7864    2.7324 H   0  0  0  0  0  0  0  0  0  0  0  0
   16.3462   13.2332    2.6927 H   0  0  0  0  0  0  0  0  0  0  0  0
   14.4896   11.7141    2.0453 H   0  0  0  0  0  0  0  0  0  0  0  0
   13.6245   15.4641    5.1943 H   0  0  0  0  0  0  0  0  0  0  0  0
  2  1  2  0
  3  2  1  0
  4  3  2  0
  5  4  1  0
  6  5  2  0
  6  1  1  0
  7  6  1  0
  8  4  1  0
  9  8  2  0
 10  9  1  0
 11 10  2  0
 12 11  1  0
 13 12  2  0
 13  8  1  0
 14 11  1  0
 15 12  1  0
 16 15  2  0
 17 15  1  0
 19  1  1  0
 19 18  1  0
 20 19  2  0
  2 21  1  0
  3 22  1  0
  5 23  1  0
  9 24  1  0
 10 25  1  0
 13 26  1  0
M  CHG  2  17  -1  18  -1
M  END
$$$$
=
     RDKit          3D

 27 28  0  0  0  0  0  0  0  0999 V2000
   29.5910   25.4300   15.2940 N   0  0  0  0  0  0  0  0  0  0  0  0
   29.4230   26.8490   15.2770 C   0  0  0  0  0  0  0  0  0  0  0  0
   30.3540   27.7260   15.8610 C   0  0  0  0  0  0  0  0  0  0  0  0
   30.1790   29.1130   15.8050 C   0  0  0  0  0  0  0  0  0  0  0  0
   29.0680   29.6450   15.1640 C   0  0  0  0  0  0  0  0  0  0  0  0
   28.1310   28.7880   14.5900 C   0  0  0  0  0  0  0  0  0  0  0  0
   28.2960   27.3930   14.6430 C   0  0  0  0  0  0  0  0  0  0  0  0
   27.2880   26.4940   14.0720 C   0  0  0  0  0  0  0  0  0  0  0  0
   27.4130   25.1580   14.1680 C   0  0  0  0  0  0  0  0  0  0  0  0
   28.6380   24.5560   14.7450 C   0  0  0  0  0  0  0  0  0  0  0  0
   28.8440   23.3430   14.7110 O   0  0  0  0  0  0  0  0  0  0  0  0
   26.2640   24.2820   13.6740 C   0  0  0  0  0  0  0  0  0  0  0  0
   26.1130   24.2980   12.4050 O   0  0  0  0  0  0  0  0  0  0  0  0
   25.5190   23.7400   14.5310 O   0  0  0  0  0  1  0  0  0  0  0  0
   30.5420   24.4430   17.3550 C   0  0  0  0  0  0  0  0  0  0  0  0
   30.7740   24.8220   15.8980 C   0  0  0  0  0  0  0  0  0  0  0  0
   26.2110   27.1150   13.4570 O   0  0  0  0  0  0  0  0  0  0  0  0
   31.2368   27.3138   16.3717 H   0  0  0  0  0  0  0  0  0  0  0  0
   30.9203   29.7809   16.2680 H   0  0  0  0  0  0  0  0  0  0  0  0
   28.9286   30.7348   15.1097 H   0  0  0  0  0  0  0  0  0  0  0  0
   27.2481   29.2099   14.0874 H   0  0  0  0  0  0  0  0  0  0  0  0
   31.0041   25.1978   18.0083 H   0  0  0  0  0  0  0  0  0  0  0  0
   29.4612   24.3977   17.5544 H   0  0  0  0  0  0  0  0  0  0  0  0
   30.9932   23.4598   17.5544 H   0  0  0  0  0  0  0  0  0  0  0  0
   31.0347   23.9151   15.3327 H   0  0  0  0  0  0  0  0  0  0  0  0
   31.5888   25.5603   15.8653 H   0  0  0  0  0  0  0  0  0  0  0  0
   25.4920   26.5700   13.0494 H   0  0  0  0  0  0  0  0  0  0  0  0
  2  1  1  0
  3  2  2  0
  4  3  1  0
  5  4  2  0
  6  5  1  0
  7  2  1  0
  7  6  2  0
  8  7  1  0
  9  8  2  0
 10  9  1  0
 10  1  1  0
 11 10  2  0
 12  9  1  0
 13 12  2  0
 14 12  1  0
 16  1  1  0
 16 15  1  0
 17  8  1  0
  3 18  1  0
  4 19  1  0
  5 20  1  0
  6 21  1  0
 15 22  1  0
 15 23  1  0
 15 24  1  0
 16 25  1  0
 16 26  1  0
 17 27  1  0
M  CHG  1  14  -1
M  END
$$$$
=
     RDKit          3D

 41 43  0  0  0  0  0  0  0  0999 V2000
   16.4860   15.7050    3.7980 N   0  0  0  0  0  4  0  0  0  0  0  0
   15.3300   16.0580    4.7270 C   0  0  0  0  0  0  0  0  0  0  0  0
   14.8060   14.8080    5.4730 C   0  0  0  0  0  0  0  0  0  0  0  0
   14.5090   13.6900    4.5460 N   0  0  0  0  0  0  0  0  0  0  0  0
   15.6590   13.3410    3.6700 C   0  0  0  0  0  0  0  0  0  0  0  0
   16.1340   14.5740    2.8740 C   0  0  0  0  0  0  0  0  0  0  0  0
   13.2320   13.5390    3.9990 C   0  0  0  0  0  0  0  0  0  0  0  0
   13.0030   12.5620    3.0090 C   0  0  0  0  0  0  0  0  0  0  0  0
   11.7430   12.3690    2.4330 C   0  0  0  0  0  0  0  0  0  0  0  0
   10.6790   13.1490    2.8520 C   0  0  0  0  0  0  0  0  0  0  0  0
   10.8530   14.1030    3.8400 C   0  0  0  0  0  0  0  0  0  0  0  0
   12.1180   14.2880    4.4120 C   0  0  0  0  0  0  0  0  0  0  0  0
    9.4690   12.9700    2.3060 F   0  0  0  0  0  0  0  0  0  0  0  0
   17.8440   15.6410    4.5690 C   0  0  1  0  0  0  0  0  0  0  0  0
   18.9510   16.4310    3.8940 C   0  0  0  0  0  0  0  0  0  0  0  0
   18.8320   16.7970    2.5470 C   0  0  0  0  0  0  0  0  0  0  0  0
   19.8340   17.5640    1.9730 C   0  0  0  0  0  0  0  0  0  0  0  0
   20.9240   17.9940    2.6410 N   0  0  0  0  0  0  0  0  0  0  0  0
   21.0430   17.6050    3.9270 C   0  0  0  0  0  0  0  0  0  0  0  0
   20.0960   16.8420    4.5900 C   0  0  0  0  0  0  0  0  0  0  0  0
   17.8930   15.2840    6.8950 O   0  0  0  0  0  1  0  0  0  0  0  0
   17.6460   16.1920    6.0340 C   0  0  0  0  0  0  0  0  0  0  0  0
   17.4040   17.4150    6.1510 O   0  0  0  0  0  0  0  0  0  0  0  0
   16.6549   16.4726    3.1323 H   0  0  0  0  0  0  0  0  0  0  0  0
   15.6761   16.7967    5.4649 H   0  0  0  0  0  0  0  0  0  0  0  0
   14.5099   16.4690    4.1199 H   0  0  0  0  0  0  0  0  0  0  0  0
   15.5695   14.4786    6.1931 H   0  0  0  0  0  0  0  0  0  0  0  0
   13.8707   15.0841    5.9819 H   0  0  0  0  0  0  0  0  0  0  0  0
   16.4877   12.9721    4.2923 H   0  0  0  0  0  0  0  0  0  0  0  0
   15.3388   12.5643    2.9599 H   0  0  0  0  0  0  0  0  0  0  0  0
   17.0213   14.3017    2.2836 H   0  0  0  0  0  0  0  0  0  0  0  0
   15.3183   14.9012    2.2126 H   0  0  0  0  0  0  0  0  0  0  0  0
   13.8417   11.9314    2.6790 H   0  0  0  0  0  0  0  0  0  0  0  0
   11.5991   11.6050    1.6548 H   0  0  0  0  0  0  0  0  0  0  0  0
   10.0011   14.7133    4.1745 H   0  0  0  0  0  0  0  0  0  0  0  0
   12.2423   15.0396    5.2055 H   0  0  0  0  0  0  0  0  0  0  0  0
   18.1517   14.5850    4.5798 H   0  0  0  0  0  0  0  0  0  0  0  0
   17.9597   16.4816    1.9558 H   0  0  0  0  0  0  0  0  0  0  0  0
   19.7344   17.8375    0.9122 H   0  0  0  0  0  0  0  0  0  0  0  0
   21.9430   17.9110    4.4805 H   0  0  0  0  0  0  0  0  0  0  0  0
   20.2401   16.5635    5.6444 H   0  0  0  0  0  0  0  0  0  0  0  0
  2  1  1  0
  3  2  1  0
  4  3  1  0
  5  4  1  0
  6  5  1  0
  6  1  1  0
  7  4  1  0
  8  7  2  0
  9  8  1  0
 10  9  2  0
 11 10  1  0
 12 11  2  0
 12  7  1  0
 13 10  1  0
 14  1  1  0
 15 14  1  0
 16 15  2  0
 17 16  1  0
 18 17  2  0
 19 18  1  0
 20 19  2  0
 20 15  1  0
 22 14  1  0
 22 21  1  0
 23 22  2  0
  1 24  1  0
  2 25  1  0
  2 26  1  0
  3 27  1  0
  3 28  1  0
  5 29  1  0
  5 30  1  0
  6 31  1  0
  6 32  1  0
  8 33  1  0
  9 34  1  0
 11 35  1  0
 12 36  1  0
 14 37  1  1
 16 38  1  0
 17 39  1  0
 19 40  1  0
 20 41  1  0
M  CHG  2   1   1  21  -1
M  END
$$$$
=
     RDKit          3D

 20 21  0  0  0  0  0  0  0  0999 V2000
   12.1930   12.2570    2.7710 C   0  0  0  0  0  0  0  0  0  0  0  0
   13.3400   13.1070    3.2290 C   0  0  0  0  0  0  0  0  0  0  0  0
   13.0120   14.2790    4.0430 C   0  0  0  0  0  0  0  0  0  0  0  0
   14.0040   15.0740    4.4770 C   0  0  0  0  0  0  0  0  0  0  0  0
   15.3210   14.7640    4.1430 N   0  0  0  0  0  0  0  0  0  0  0  0
   15.6780   13.6650    3.3750 C   0  0  0  0  0  0  0  0  0  0  0  0
   14.6250   12.8240    2.9160 C   0  0  0  0  0  0  0  0  0  0  0  0
   16.9800   13.5960    3.2040 N   0  0  0  0  0  0  0  0  0  0  0  0
   17.5040   14.6990    3.8900 C   0  0  0  0  0  0  0  0  0  0  0  0
   16.4760   15.4150    4.4660 C   0  0  0  0  0  0  0  0  0  0  0  0
   16.5580   16.5310    5.2040 F   0  0  0  0  0  0  0  0  0  0  0  0
   19.0480   15.0890    4.0010 C   0  0  0  0  0  0  0  0  0  0  0  0
   19.6550   14.7440    5.0650 O   0  0  0  0  0  0  0  0  0  0  0  0
   19.5590   15.7170    3.0210 O   0  0  0  0  0  1  0  0  0  0  0  0
   11.6580   11.8605    3.6465 H   0  0  0  0  0  0  0  0  0  0  0  0
   11.5050   12.8650    2.1652 H   0  0  0  0  0  0  0  0  0  0  0  0
   12.5745   11.4218    2.1652 H   0  0  0  0  0  0  0  0  0  0  0  0
   11.9658   14.5058    4.2961 H   0  0  0  0  0  0  0  0  0  0  0  0
   13.7793   15.9598    5.0892 H   0  0  0  0  0  0  0  0  0  0  0  0
   14.8575   11.9400    2.3040 H   0  0  0  0  0  0  0  0  0  0  0  0
  2  1  1  0
  3  2  1  0
  4  3  2  0
  5  4  1  0
  6  5  1  0
  7  6  1  0
  7  2  2  0
  8  6  2  0
  9  8  1  0
 10  5  1  0
 10  9  2  0
 11 10  1  0
 12  9  1  0
 13 12  2  0
 14 12  1  0
  1 15  1  0
  1 16  1  0
  1 17  1  0
  3 18  1  0
  4 19  1  0
  7 20  1  0
M  CHG  1  14  -1
M  END
$$$$
=
     RDKit          3D

 22 23  0  0  0  0  0  0  0  0999 V2000
   18.8150   17.1230    4.7130 C   0  0  0  0  0  0  0  0  0  0  0  0
   17.9010   17.3720    5.7500 C   0  0  0  0  0  0  0  0  0  0  0  0
   16.6900   16.6780    5.8440 C   0  0  0  0  0  0  0  0  0  0  0  0
   16.3620   15.6980    4.9040 C   0  0  0  0  0  0  0  0  0  0  0  0
   17.2540   15.4460    3.8590 C   0  0  0  0  0  0  0  0  0  0  0  0
   18.4600   16.1490    3.7690 C   0  0  0  0  0  0  0  0  0  0  0  0
   15.0620   14.9590    4.9910 C   0  0  0  0  0  0  0  0  0  0  0  0
   21.4330   17.4850    5.1570 C   0  0  2  0  0  0  0  0  0  0  0  0
   20.6140   18.4770    5.8130 O   0  0  0  0  0  0  0  0  0  0  0  0
   20.0940   17.9150    4.5960 C   0  0  2  0  0  0  0  0  0  0  0  0
   21.8700   15.1960    5.0440 O   0  0  0  0  0  1  0  0  0  0  0  0
   21.5810   16.1760    5.8080 C   0  0  0  0  0  0  0  0  0  0  0  0
   21.4870   16.0980    7.0740 O   0  0  0  0  0  0  0  0  0  0  0  0
   18.1436   18.1319    6.5074 H   0  0  0  0  0  0  0  0  0  0  0  0
   15.9918   16.9053    6.6630 H   0  0  0  0  0  0  0  0  0  0  0  0
   17.0061   14.6886    3.1007 H   0  0  0  0  0  0  0  0  0  0  0  0
   19.1466   15.9324    2.9373 H   0  0  0  0  0  0  0  0  0  0  0  0
   14.7961   14.8079    6.0476 H   0  0  0  0  0  0  0  0  0  0  0  0
   14.2737   15.5440    4.4946 H   0  0  0  0  0  0  0  0  0  0  0  0
   15.1614   13.9824    4.4946 H   0  0  0  0  0  0  0  0  0  0  0  0
   22.4563   17.4243    4.7579 H   0  0  0  0  0  0  0  0  0  0  0  0
   19.7848   18.2394    3.5914 H   0  0  0  0  0  0  0  0  0  0  0  0
  2  1  2  0
  3  2  1  0
  4  3  2  0
  5  4  1  0
  6  5  2  0
  6  1  1  0
  7  4  1  0
  9  8  1  0
 10  8  1  0
 10  1  1  0
 10  9  1  0
 12  8  1  0
 12 11  1  0
 13 12  2  0
  2 14  1  0
  3 15  1  0
  5 16  1  0
  6 17  1  0
  7 18  1  0
  7 19  1  0
  7 20  1  0
  8 21  1  6
 10 22  1  6
M  CHG  1  11  -1
M  END
$$$$
=
     RDKit          3D

 21 21  0  0  0  0  0  0  0  0999 V2000
   16.5250   15.6430    6.5860 C   0  0  0  0  0  0  0  0  0  0  0  0
   16.2930   16.3190    5.2300 C   0  0  1  0  0  0  0  0  0  0  0  0
   17.4570   16.0640    4.2630 C   0  0  0  0  0  0  0  0  0  0  0  0
   17.5590   14.5960    3.8280 C   0  0  0  0  0  0  0  0  0  0  0  0
   16.2240   13.9700    3.5280 C   0  0  0  0  0  0  0  0  0  0  0  0
   15.0620   14.5590    3.8660 C   0  0  0  0  0  0  0  0  0  0  0  0
   14.9680   15.8650    4.5920 C   0  0  0  0  0  0  0  0  0  0  0  0
   16.2450   12.5950    2.7920 C   0  0  0  0  0  0  0  0  0  0  0  0
   17.3790   12.0370    2.7390 O   0  0  0  0  0  0  0  0  0  0  0  0
   15.1340   12.1960    2.3370 O   0  0  0  0  0  1  0  0  0  0  0  0
   16.2827   16.3491    7.3939 H   0  0  0  0  0  0  0  0  0  0  0  0
   15.8799   14.7559    6.6686 H   0  0  0  0  0  0  0  0  0  0  0  0
   17.5789   15.3390    6.6686 H   0  0  0  0  0  0  0  0  0  0  0  0
   16.2343   17.4006    5.4218 H   0  0  0  0  0  0  0  0  0  0  0  0
   17.3127   16.6865    3.3676 H   0  0  0  0  0  0  0  0  0  0  0  0
   18.3878   16.3179    4.7914 H   0  0  0  0  0  0  0  0  0  0  0  0
   18.1811   14.5426    2.9224 H   0  0  0  0  0  0  0  0  0  0  0  0
   17.9996   14.0374    4.6670 H   0  0  0  0  0  0  0  0  0  0  0  0
   14.1256   14.0506    3.5926 H   0  0  0  0  0  0  0  0  0  0  0  0
   14.6452   16.6364    3.8773 H   0  0  0  0  0  0  0  0  0  0  0  0
   14.2495   15.7237    5.4129 H   0  0  0  0  0  0  0  0  0  0  0  0
  2  1  1  0
  3  2  1  0
  4  3  1  0
  5  4  1  0
  6  5  2  0
  7  6  1  0
  7  2  1  0
  8  5  1  0
  9  8  2  0
 10  8  1  0
  1 11  1  0
  1 12  1  0
  1 13  1  0
  2 14  1  1
  3 15  1  0
  3 16  1  0
  4 17  1  0
  4 18  1  0
  6 19  1  0
  7 20  1  0
  7 21  1  0
M  CHG  1  10  -1
M  END
$$$$
=
     RDKit          3D

 27 28  0  0  0  0  0  0  0  0999 V2000
   15.0200   14.5380    4.0110 C   0  0  0  0  0  0  0  0  0  0  0  0
   15.2830   13.4920    3.2160 C   0  0  0  0  0  0  0  0  0  0  0  0
   16.6490   13.0270    2.9780 C   0  0  0  0  0  0  0  0  0  0  0  0
   16.8860   11.9760    2.3930 O   0  0  0  0  0  0  0  0  0  0  0  0
   17.6520   13.8300    3.4270 N   0  0  0  0  0  0  0  0  0  0  0  0
   17.4460   14.8610    4.3690 N   0  0  0  0  0  0  0  0  0  0  0  0
   16.1410   15.2730    4.6850 C   0  0  0  0  0  0  0  0  0  0  0  0
   15.8630   16.2040    5.4430 O   0  0  0  0  0  0  0  0  0  0  0  0
   18.6230   15.4800    4.9210 C   0  0  0  0  0  0  0  0  0  0  0  0
   19.0050   16.7730    4.5150 C   0  0  0  0  0  0  0  0  0  0  0  0
   20.1560   17.3870    5.0240 C   0  0  0  0  0  0  0  0  0  0  0  0
   20.9510   16.7200    5.9490 C   0  0  0  0  0  0  0  0  0  0  0  0
   20.5920   15.4420    6.3660 C   0  0  0  0  0  0  0  0  0  0  0  0
   19.4400   14.8310    5.8560 C   0  0  0  0  0  0  0  0  0  0  0  0
   13.6350   15.0660    4.3110 C   0  0  0  0  0  0  0  0  0  0  0  0
   12.0140   13.7410    3.2240 O   0  0  0  0  0  1  0  0  0  0  0  0
   12.5510   13.9980    4.3390 C   0  0  0  0  0  0  0  0  0  0  0  0
   12.2980   13.5140    5.4790 O   0  0  0  0  0  0  0  0  0  0  0  0
   14.4477   12.9681    2.7284 H   0  0  0  0  0  0  0  0  0  0  0  0
   18.6037   13.6787    3.0633 H   0  0  0  0  0  0  0  0  0  0  0  0
   18.3862   17.3121    3.7826 H   0  0  0  0  0  0  0  0  0  0  0  0
   20.4315   18.3987    4.6914 H   0  0  0  0  0  0  0  0  0  0  0  0
   21.8572   17.1990    6.3483 H   0  0  0  0  0  0  0  0  0  0  0  0
   21.2157   14.9096    7.0992 H   0  0  0  0  0  0  0  0  0  0  0  0
   19.1708   13.8203    6.1966 H   0  0  0  0  0  0  0  0  0  0  0  0
   13.6593   15.5583    5.2944 H   0  0  0  0  0  0  0  0  0  0  0  0
   13.3768   15.7561    3.4943 H   0  0  0  0  0  0  0  0  0  0  0  0
  2  1  2  0
  3  2  1  0
  4  3  2  0
  5  3  1  0
  6  5  1  0
  7  1  1  0
  7  6  1  0
  8  7  2  0
  9  6  1  0
 10  9  2  0
 11 10  1  0
 12 11  2  0
 13 12  1  0
 14  9  1  0
 14 13  2  0
 15  1  1  0
 17 16  1  0
 17 15  1  0
 18 17  2  0
  2 19  1  0
  5 20  1  0
 10 21  1  0
 11 22  1  0
 12 23  1  0
 13 24  1  0
 14 25  1  0
 15 26  1  0
 15 27  1  0
M  CHG  1  16  -1
M  END
$$$$
=
     RDKit          3D

 47 48  0  0  0  0  0  0  0  0999 V2000
   30.7390   25.7830   16.2910 O   0  0  0  0  0  0  0  0  0  0  0  0
   30.1770   26.2630   15.3120 C   0  0  0  0  0  0  0  0  0  0  0  0
   29.3060   25.5610   14.4920 N   0  0  0  0  0  0  0  0  0  0  0  0
   29.2600   24.1090   14.6300 C   0  0  0  0  0  0  0  0  0  0  0  0
   27.9150   23.5170   14.2010 C   0  0  0  0  0  0  0  0  0  0  0  0
   27.4580   23.9980   12.8100 C   0  0  0  0  0  0  0  0  0  0  0  0
   27.5110   25.5450   12.7980 C   0  0  0  0  0  0  0  0  0  0  0  0
   28.8830   26.0820   13.1940 C   0  0  0  0  0  0  0  0  0  0  0  0
   28.3540   23.5040   11.6440 C   0  0  0  0  0  0  0  0  0  0  0  0
   28.0010   23.8770   10.4870 O   0  0  0  0  0  0  0  0  0  0  0  0
   29.3370   22.7800   11.9640 O   0  0  0  0  0  1  0  0  0  0  0  0
   26.0100   23.5530   12.4810 C   0  0  0  0  0  0  0  0  0  0  0  0
   24.9180   24.5840   12.6650 C   0  0  0  0  0  0  0  0  0  0  0  0
   24.2940   24.7550   13.9080 C   0  0  0  0  0  0  0  0  0  0  0  0
   23.2880   25.7100   14.0760 C   0  0  0  0  0  0  0  0  0  0  0  0
   22.8880   26.5050   13.0030 C   0  0  0  0  0  0  0  0  0  0  0  0
   23.4970   26.3420   11.7600 C   0  0  0  0  0  0  0  0  0  0  0  0
   24.5020   25.3910   11.6010 C   0  0  0  0  0  0  0  0  0  0  0  0
   25.0670   25.2580   10.3900 F   0  0  0  0  0  0  0  0  0  0  0  0
   30.3280   27.5560   14.9170 O   0  0  0  0  0  0  0  0  0  0  0  0
   29.6030   28.6290   15.5650 C   0  0  0  0  0  0  0  0  0  0  0  0
   28.8000   28.1170   16.7670 C   0  0  0  0  0  0  0  0  0  0  0  0
   30.6970   29.5780   16.0790 C   0  0  0  0  0  0  0  0  0  0  0  0
   28.7250   29.3940   14.5690 C   0  0  0  0  0  0  0  0  0  0  0  0
   30.0525   23.6709   14.0055 H   0  0  0  0  0  0  0  0  0  0  0  0
   29.4030   23.8718   15.6946 H   0  0  0  0  0  0  0  0  0  0  0  0
   28.0059   22.4210   14.1799 H   0  0  0  0  0  0  0  0  0  0  0  0
   27.1617   23.8543   14.9282 H   0  0  0  0  0  0  0  0  0  0  0  0
   27.2720   25.8990   11.7843 H   0  0  0  0  0  0  0  0  0  0  0  0
   26.7813   25.9118   13.5349 H   0  0  0  0  0  0  0  0  0  0  0  0
   29.6177   25.7831   12.4319 H   0  0  0  0  0  0  0  0  0  0  0  0
   28.8180   27.1777   13.2657 H   0  0  0  0  0  0  0  0  0  0  0  0
   25.9916   23.2338   11.4285 H   0  0  0  0  0  0  0  0  0  0  0  0
   25.7814   22.7605   13.2088 H   0  0  0  0  0  0  0  0  0  0  0  0
   24.5994   24.1307   14.7606 H   0  0  0  0  0  0  0  0  0  0  0  0
   22.8098   25.8350   15.0587 H   0  0  0  0  0  0  0  0  0  0  0  0
   22.0962   27.2568   13.1366 H   0  0  0  0  0  0  0  0  0  0  0  0
   23.1848   26.9626   10.9071 H   0  0  0  0  0  0  0  0  0  0  0  0
   29.2934   28.4316   17.6984 H   0  0  0  0  0  0  0  0  0  0  0  0
   27.7824   28.5334   16.7324 H   0  0  0  0  0  0  0  0  0  0  0  0
   28.7482   27.0188   16.7324 H   0  0  0  0  0  0  0  0  0  0  0  0
   30.6960   29.5771   17.1790 H   0  0  0  0  0  0  0  0  0  0  0  0
   31.6776   29.2396   15.7130 H   0  0  0  0  0  0  0  0  0  0  0  0
   30.5005   30.5965   15.7130 H   0  0  0  0  0  0  0  0  0  0  0  0
   28.0067   30.0199   15.1188 H   0  0  0  0  0  0  0  0  0  0  0  0
   29.3590   30.0328   13.9366 H   0  0  0  0  0  0  0  0  0  0  0  0
   28.1790   28.6785   13.9366 H   0  0  0  0  0  0  0  0  0  0  0  0
  2  1  2  0
  3  2  1  0
  4  3  1  0
  5  4  1  0
  6  5  1  0
  7  6  1  0
  8  7  1  0
  8  3  1  0
  9  6  1  0
 10  9  2  0
 11  9  1  0
 12  6  1  0
 13 12  1  0
 14 13  2  0
 15 14  1  0
 16 15  2  0
 17 16  1  0
 18 17  2  0
 18 13  1  0
 19 18  1  0
 20  2  1  0
 21 20  1  0
 22 21  1  0
 23 21  1  0
 24 21  1  0
  4 25  1  0
  4 26  1  0
  5 27  1  0
  5 28  1  0
  7 29  1  0
  7 30  1  0
  8 31  1  0
  8 32  1  0
 12 33  1  0
 12 34  1  0
 14 35  1  0
 15 36  1  0
 16 37  1  0
 17 38  1  0
 22 39  1  0
 22 40  1  0
 22 41  1  0
 23 42  1  0
 23 43  1  0
 23 44  1  0
 24 45  1  0
 24 46  1  0
 24 47  1  0
M  CHG  1  11  -1
M  END
$$$$
=
     RDKit          3D

 30 31  0  0  0  0  0  0  0  0999 V2000
   28.9260   25.3230   13.4350 C   0  0  0  0  0  0  0  0  0  0  0  0
   29.5870   24.5490   14.2490 N   0  0  0  0  0  0  0  0  0  0  0  0
   29.9870   25.1040   15.4230 C   0  0  0  0  0  0  0  0  0  0  0  0
   30.7300   24.5570   16.3650 N   0  0  0  0  0  0  0  0  0  0  0  0
   30.8000   25.4140   17.4170 N   0  0  0  0  0  0  0  0  0  0  0  0
   30.0800   26.4790   17.1290 C   0  0  0  0  0  0  0  0  0  0  0  0
   29.6530   26.4200   15.8020 N   0  0  0  0  0  0  0  0  0  0  0  0
   29.0110   27.3100   14.8890 C   0  0  0  0  0  0  0  0  0  0  0  0
   28.6320   26.7660   13.7100 C   0  0  0  0  0  0  0  0  0  0  0  0
   29.7260   27.4630   18.1710 C   0  0  0  0  0  0  0  0  0  0  0  0
   28.8240   28.8310   15.1270 C   0  0  0  0  0  0  0  0  0  0  0  0
   27.7580   29.1530   16.2240 C   0  0  0  0  0  0  0  0  0  0  0  0
   28.2640   29.5020   13.8520 C   0  0  0  0  0  0  0  0  0  0  0  0
   30.1170   29.5150   15.6200 C   0  0  0  0  0  0  0  0  0  0  0  0
   27.7940   25.5600   11.3490 O   0  0  0  0  0  1  0  0  0  0  0  0
   28.4250   24.7390   12.0910 C   0  0  0  0  0  0  0  0  0  0  0  0
   28.6680   23.5200   11.8410 O   0  0  0  0  0  0  0  0  0  0  0  0
   28.1119   27.3785   12.9588 H   0  0  0  0  0  0  0  0  0  0  0  0
   29.8859   27.0186   19.1645 H   0  0  0  0  0  0  0  0  0  0  0  0
   30.3593   28.3558   18.0625 H   0  0  0  0  0  0  0  0  0  0  0  0
   28.6691   27.7478   18.0625 H   0  0  0  0  0  0  0  0  0  0  0  0
   28.2047   29.0181   17.2201 H   0  0  0  0  0  0  0  0  0  0  0  0
   27.4193   30.1935   16.1119 H   0  0  0  0  0  0  0  0  0  0  0  0
   26.8999   28.4740   16.1119 H   0  0  0  0  0  0  0  0  0  0  0  0
   27.5831   30.3179   14.1359 H   0  0  0  0  0  0  0  0  0  0  0  0
   29.0948   29.9083   13.2564 H   0  0  0  0  0  0  0  0  0  0  0  0
   27.7157   28.7573   13.2564 H   0  0  0  0  0  0  0  0  0  0  0  0
   30.1313   29.5226   16.7199 H   0  0  0  0  0  0  0  0  0  0  0  0
   30.9905   28.9610   15.2457 H   0  0  0  0  0  0  0  0  0  0  0  0
   30.1506   30.5488   15.2457 H   0  0  0  0  0  0  0  0  0  0  0  0
  2  1  2  0
  3  2  1  0
  4  3  2  0
  5  4  1  0
  6  5  2  0
  7  3  1  0
  7  6  1  0
  8  7  1  0
  9  1  1  0
  9  8  2  0
 10  6  1  0
 11  8  1  0
 12 11  1  0
 13 11  1  0
 14 11  1  0
 16 15  1  0
 16  1  1  0
 17 16  2  0
  9 18  1  0
 10 19  1  0
 10 20  1  0
 10 21  1  0
 12 22  1  0
 12 23  1  0
 12 24  1  0
 13 25  1  0
 13 26  1  0
 13 27  1  0
 14 28  1  0
 14 29  1  0
 14 30  1  0
M  CHG  1  15  -1
M  END
$$$$
=
     RDKit          3D

 30 31  0  0  0  0  0  0  0  0999 V2000
   16.8500   17.0670    5.5950 C   0  0  0  0  0  0  0  0  0  0  0  0
   17.2550   15.8730    4.7810 C   0  0  0  0  0  0  0  0  0  0  0  0
   16.2120   15.0330    4.3260 C   0  0  0  0  0  0  0  0  0  0  0  0
   16.4490   13.8930    3.5430 C   0  0  0  0  0  0  0  0  0  0  0  0
   17.7730   13.5940    3.2180 C   0  0  0  0  0  0  0  0  0  0  0  0
   18.8160   14.4040    3.6720 C   0  0  0  0  0  0  0  0  0  0  0  0
   18.5880   15.5430    4.4680 C   0  0  0  0  0  0  0  0  0  0  0  0
   19.7320   16.2570    4.8490 N   0  0  0  0  0  0  0  0  0  0  0  0
   20.3010   17.2190    3.8960 C   0  0  0  0  0  0  0  0  0  0  0  0
   21.3300   18.0890    4.6370 C   0  0  0  0  0  0  0  0  0  0  0  0
   22.3670   17.2820    5.2310 O   0  0  0  0  0  0  0  0  0  0  0  0
   21.7940   16.3530    6.1700 C   0  0  0  0  0  0  0  0  0  0  0  0
   20.7550   15.4280    5.5100 C   0  0  0  0  0  0  0  0  0  0  0  0
   15.3050   13.0200    3.0620 C   0  0  0  0  0  0  0  0  0  0  0  0
   14.1310   13.3550    3.4150 O   0  0  0  0  0  0  0  0  0  0  0  0
   15.6060   12.0150    2.3420 O   0  0  0  0  0  1  0  0  0  0  0  0
   16.9317   16.8260    6.6652 H   0  0  0  0  0  0  0  0  0  0  0  0
   17.5113   17.9136    5.3582 H   0  0  0  0  0  0  0  0  0  0  0  0
   15.8102   17.3366    5.3582 H   0  0  0  0  0  0  0  0  0  0  0  0
   15.1754   15.2830    4.5963 H   0  0  0  0  0  0  0  0  0  0  0  0
   17.9968   12.7127    2.5989 H   0  0  0  0  0  0  0  0  0  0  0  0
   19.8493   14.1438    3.3989 H   0  0  0  0  0  0  0  0  0  0  0  0
   20.7944   16.6795    3.0741 H   0  0  0  0  0  0  0  0  0  0  0  0
   19.5042   17.8514    3.4776 H   0  0  0  0  0  0  0  0  0  0  0  0
   21.7864   18.7906    3.9232 H   0  0  0  0  0  0  0  0  0  0  0  0
   20.8109   18.6334    5.4396 H   0  0  0  0  0  0  0  0  0  0  0  0
   22.5995   15.7357    6.5944 H   0  0  0  0  0  0  0  0  0  0  0  0
   21.2820   16.9339    6.9513 H   0  0  0  0  0  0  0  0  0  0  0  0
   20.2810   14.7979    6.2771 H   0  0  0  0  0  0  0  0  0  0  0  0
   21.2479   14.7817    4.7688 H   0  0  0  0  0  0  0  0  0  0  0  0
  2  1  1  0
  3  2  2  0
  4  3  1  0
  5  4  2  0
  6  5  1  0
  7  6  2  0
  7  2  1  0
  8  7  1  0
  9  8  1  0
 10  9  1  0
 11 10  1  0
 12 11  1  0
 13  8  1  0
 13 12  1  0
 14  4  1  0
 15 14  2  0
 16 14  1  0
  1 17  1  0
  1 18  1  0
  1 19  1  0
  3 20  1  0
  5 21  1  0
  6 22  1  0
  9 23  1  0
  9 24  1  0
 10 25  1  0
 10 26  1  0
 12 27  1  0
 12 28  1  0
 13 29  1  0
 13 30  1  0
M  CHG  1  16  -1
M  END
$$$$
=
     RDKit          3D

 24 24  0  0  0  0  0  0  0  0999 V2000
   19.2720   17.6260    1.5450 O   0  0  0  0  0  0  0  0  0  0  0  0
   19.4190   17.3090    2.7310 C   0  0  0  0  0  0  0  0  0  0  0  0
   19.8100   18.3440    3.7600 C   0  0  0  0  0  0  0  0  0  0  0  0
   20.6730   17.7150    4.8530 C   0  0  1  0  0  0  0  0  0  0  0  0
   21.1070   18.7910    5.8560 C   0  0  0  0  0  0  0  0  0  0  0  0
   19.9590   16.5420    5.5710 C   0  0  1  0  0  0  0  0  0  0  0  0
   18.9570   15.7640    4.6820 C   0  0  2  0  0  0  0  0  0  0  0  0
   19.2790   15.8730    3.1900 C   0  0  0  0  0  0  0  0  0  0  0  0
   17.4700   16.1640    4.8030 C   0  0  0  0  0  0  0  0  0  0  0  0
   16.6490   15.5410    4.0720 O   0  0  0  0  0  0  0  0  0  0  0  0
   17.2220   17.0660    5.6590 O   0  0  0  0  0  1  0  0  0  0  0  0
   21.0870   15.6090    6.0790 C   0  0  0  0  0  0  0  0  0  0  0  0
   21.0640   15.3530    7.3200 O   0  0  0  0  0  0  0  0  0  0  0  0
   21.9420   15.2420    5.2200 O   0  0  0  0  0  1  0  0  0  0  0  0
   20.3783   19.1468    3.2676 H   0  0  0  0  0  0  0  0  0  0  0  0
   18.8969   18.7511    4.2188 H   0  0  0  0  0  0  0  0  0  0  0  0
   21.5642   17.2874    4.3704 H   0  0  0  0  0  0  0  0  0  0  0  0
   20.9571   18.4192    6.8804 H   0  0  0  0  0  0  0  0  0  0  0  0
   22.1706   19.0268    5.7035 H   0  0  0  0  0  0  0  0  0  0  0  0
   20.5047   19.6987    5.7035 H   0  0  0  0  0  0  0  0  0  0  0  0
   19.3367   16.9409    6.3856 H   0  0  0  0  0  0  0  0  0  0  0  0
   19.0860   14.7455    5.0769 H   0  0  0  0  0  0  0  0  0  0  0  0
   20.2244   15.3460    2.9936 H   0  0  0  0  0  0  0  0  0  0  0  0
   18.4429   15.4241    2.6337 H   0  0  0  0  0  0  0  0  0  0  0  0
  2  1  2  0
  3  2  1  0
  4  3  1  0
  5  4  1  0
  6  4  1  0
  7  6  1  0
  8  7  1  0
  8  2  1  0
  9  7  1  0
 10  9  2  0
 11  9  1  0
 12  6  1  0
 13 12  2  0
 14 12  1  0
  3 15  1  0
  3 16  1  0
  4 17  1  6
  5 18  1  0
  5 19  1  0
  5 20  1  0
  6 21  1  1
  7 22  1  1
  8 23  1  0
  8 24  1  0
M  CHG  2  11  -1  14  -1
M  END
$$$$
=
     RDKit          3D

 35 36  0  0  0  0  0  0  0  0999 V2000
   27.9180   28.0510   15.7870 C   0  0  1  0  0  0  0  0  0  0  0  0
   28.5250   28.7000   17.0560 C   0  0  2  0  0  0  0  0  0  0  0  0
   29.6730   29.6460   16.6350 C   0  0  0  0  0  0  0  0  0  0  0  0
   30.7740   28.6730   16.1560 C   0  0  0  0  0  0  0  0  0  0  0  0
   30.1090   27.3010   16.3530 C   0  0  2  0  0  0  0  0  0  0  0  0
   29.0510   27.1990   15.3630 N   0  0  0  0  0  0  0  0  0  0  0  0
   29.1320   26.4860   14.2040 C   0  0  0  0  0  0  0  0  0  0  0  0
   30.1090   25.8150   13.8870 O   0  0  0  0  0  0  0  0  0  0  0  0
   29.3250   27.5270   17.6440 C   0  0  0  0  0  0  0  0  0  0  0  0
   26.6410   26.1950   16.6480 O   0  0  0  0  0  1  0  0  0  0  0  0
   26.5740   27.3570   16.1530 C   0  0  0  0  0  0  0  0  0  0  0  0
   25.5460   28.0650   15.9270 O   0  0  0  0  0  0  0  0  0  0  0  0
   28.0260   26.6510   13.4370 O   0  0  0  0  0  0  0  0  0  0  0  0
   27.3260   25.5210   12.8720 C   0  0  0  0  0  0  0  0  0  0  0  0
   25.8650   25.9850   12.7580 C   0  0  0  0  0  0  0  0  0  0  0  0
   27.8450   25.1920   11.4680 C   0  0  0  0  0  0  0  0  0  0  0  0
   27.3810   24.3050   13.8030 C   0  0  0  0  0  0  0  0  0  0  0  0
   27.6008   28.7015   14.9586 H   0  0  0  0  0  0  0  0  0  0  0  0
   27.7642   29.1980   17.6750 H   0  0  0  0  0  0  0  0  0  0  0  0
   29.3553   30.3140   15.8208 H   0  0  0  0  0  0  0  0  0  0  0  0
   30.0062   30.3085   17.4474 H   0  0  0  0  0  0  0  0  0  0  0  0
   31.0255   28.8455   15.0991 H   0  0  0  0  0  0  0  0  0  0  0  0
   31.7247   28.7830   16.6983 H   0  0  0  0  0  0  0  0  0  0  0  0
   30.8133   26.4566   16.3220 H   0  0  0  0  0  0  0  0  0  0  0  0
   28.6970   26.6699   17.9286 H   0  0  0  0  0  0  0  0  0  0  0  0
   29.8827   27.6850   18.5789 H   0  0  0  0  0  0  0  0  0  0  0  0
   25.4432   26.1190   13.7650 H   0  0  0  0  0  0  0  0  0  0  0  0
   25.8250   26.9401   12.2137 H   0  0  0  0  0  0  0  0  0  0  0  0
   25.2813   25.2280   12.2137 H   0  0  0  0  0  0  0  0  0  0  0  0
   28.7716   24.6046   11.5479 H   0  0  0  0  0  0  0  0  0  0  0  0
   27.0871   24.6091   10.9242 H   0  0  0  0  0  0  0  0  0  0  0  0
   28.0488   26.1262   10.9242 H   0  0  0  0  0  0  0  0  0  0  0  0
   27.3657   24.6435   14.8495 H   0  0  0  0  0  0  0  0  0  0  0  0
   26.5112   23.6588   13.6139 H   0  0  0  0  0  0  0  0  0  0  0  0
   28.3056   23.7399   13.6139 H   0  0  0  0  0  0  0  0  0  0  0  0
  2  1  1  0
  3  2  1  0
  4  3  1  0
  5  4  1  0
  6  1  1  0
  6  5  1  0
  7  6  1  0
  8  7  2  0
  9  5  1  0
  9  2  1  0
 11 10  1  0
 11  1  1  0
 12 11  2  0
 13  7  1  0
 14 13  1  0
 15 14  1  0
 16 14  1  0
 17 14  1  0
  1 18  1  6
  2 19  1  1
  3 20  1  0
  3 21  1  0
  4 22  1  0
  4 23  1  0
  5 24  1  1
  9 25  1  0
  9 26  1  0
 15 27  1  0
 15 28  1  0
 15 29  1  0
 16 30  1  0
 16 31  1  0
 16 32  1  0
 17 33  1  0
 17 34  1  0
 17 35  1  0
M  CHG  1  10  -1
M  END
$$$$
=
     RDKit          3D

 30 31  0  0  0  0  0  0  0  0999 V2000
   19.5330   16.5370    4.7930 N   0  0  0  0  0  0  0  0  0  0  0  0
   18.5960   17.3750    5.3700 C   0  0  0  0  0  0  0  0  0  0  0  0
   18.8260   18.8110    6.1980 S   0  0  0  0  0  0  0  0  0  0  0  0
   16.9830   16.6770    5.2210 S   0  0  0  0  0  0  0  0  0  0  0  0
   17.5500   15.3550    4.2920 C   0  0  0  0  0  0  0  0  0  0  0  0
   16.8330   14.3610    3.7470 C   0  0  0  0  0  0  0  0  0  0  0  0
   19.0310   15.4140    4.1520 C   0  0  0  0  0  0  0  0  0  0  0  0
   19.6620   14.5370    3.5750 O   0  0  0  0  0  0  0  0  0  0  0  0
   15.3750   14.2080    3.8070 C   0  0  0  0  0  0  0  0  0  0  0  0
   14.5590   15.2360    4.2960 C   0  0  0  0  0  0  0  0  0  0  0  0
   13.1710   15.0800    4.3300 C   0  0  0  0  0  0  0  0  0  0  0  0
   12.5890   13.9010    3.8660 C   0  0  0  0  0  0  0  0  0  0  0  0
   13.4020   12.8860    3.3690 C   0  0  0  0  0  0  0  0  0  0  0  0
   14.7870   13.0320    3.3320 C   0  0  0  0  0  0  0  0  0  0  0  0
   12.8720   11.7200    2.9020 O   0  0  0  0  0  0  0  0  0  0  0  0
   20.9360   16.9550    4.5220 C   0  0  1  0  0  0  0  0  0  0  0  0
   21.0280   18.1800    3.6130 C   0  0  0  0  0  0  0  0  0  0  0  0
   22.4920   18.1680    5.8710 O   0  0  0  0  0  1  0  0  0  0  0  0
   21.7660   17.1280    5.8310 C   0  0  0  0  0  0  0  0  0  0  0  0
   21.5910   16.2450    6.7170 O   0  0  0  0  0  0  0  0  0  0  0  0
   17.3920   13.5857    3.2025 H   0  0  0  0  0  0  0  0  0  0  0  0
   15.0134   16.1712    4.6552 H   0  0  0  0  0  0  0  0  0  0  0  0
   12.5367   15.8881    4.7232 H   0  0  0  0  0  0  0  0  0  0  0  0
   11.4967   13.7739    3.8924 H   0  0  0  0  0  0  0  0  0  0  0  0
   15.4162   12.2241    2.9301 H   0  0  0  0  0  0  0  0  0  0  0  0
   13.4675   11.0105    2.5526 H   0  0  0  0  0  0  0  0  0  0  0  0
   21.3950   16.1265    3.9626 H   0  0  0  0  0  0  0  0  0  0  0  0
   21.0963   19.0891    4.2286 H   0  0  0  0  0  0  0  0  0  0  0  0
   21.9226   18.0991    2.9781 H   0  0  0  0  0  0  0  0  0  0  0  0
   20.1314   18.2336    2.9781 H   0  0  0  0  0  0  0  0  0  0  0  0
  2  1  1  0
  3  2  2  0
  4  2  1  0
  5  4  1  0
  6  5  2  0
  7  5  1  0
  7  1  1  0
  8  7  2  0
  9  6  1  0
 10  9  2  0
 11 10  1  0
 12 11  2  0
 13 12  1  0
 14 13  2  0
 14  9  1  0
 15 13  1  0
 16  1  1  0
 17 16  1  0
 19 16  1  0
 19 18  1  0
 20 19  2  0
  6 21  1  0
 10 22  1  0
 11 23  1  0
 12 24  1  0
 14 25  1  0
 15 26  1  0
 16 27  1  6
 17 28  1  0
 17 29  1  0
 17 30  1  0
M  CHG  1  18  -1
M  END
$$$$
=
     RDKit          3D

 42 43  0  0  0  0  0  0  0  0999 V2000
   25.8970   28.0680   15.8840 C   0  0  0  0  0  0  0  0  0  0  0  0
   27.0690   27.7550   16.7830 C   0  0  0  0  0  0  0  0  0  0  0  0
   27.0900   28.2010   17.9320 O   0  0  0  0  0  0  0  0  0  0  0  0
   28.0890   26.9880   16.2360 N   0  0  0  0  0  0  0  0  0  0  0  0
   29.1490   26.5020   17.1030 C   0  0  0  0  0  0  0  0  0  0  0  0
   30.5130   26.7080   16.4620 C   0  0  0  0  0  0  0  0  0  0  0  0
   30.5090   26.5510   14.9380 C   0  0  0  0  0  0  0  0  0  0  0  0
   29.3150   25.7550   14.3800 C   0  0  2  0  0  0  0  0  0  0  0  0
   27.9820   26.3150   14.9310 C   0  0  0  0  0  0  0  0  0  0  0  0
   29.3310   24.2400   14.7160 C   0  0  0  0  0  0  0  0  0  0  0  0
   30.4680   23.6880   14.7070 O   0  0  0  0  0  0  0  0  0  0  0  0
   28.2040   23.7140   14.9420 O   0  0  0  0  0  1  0  0  0  0  0  0
   29.2860   25.8510   12.8240 C   0  0  0  0  0  0  0  0  0  0  0  0
   27.9570   26.3380   12.2230 C   0  0  0  0  0  0  0  0  0  0  0  0
   27.1820   25.2180   11.5170 C   0  0  0  0  0  0  0  0  0  0  0  0
   25.6830   25.3010   11.6910 C   0  0  0  0  0  0  0  0  0  0  0  0
   25.1190   26.2330   12.5590 C   0  0  0  0  0  0  0  0  0  0  0  0
   23.7350   26.2740   12.7010 C   0  0  0  0  0  0  0  0  0  0  0  0
   22.9500   25.3910   11.9710 C   0  0  0  0  0  0  0  0  0  0  0  0
   23.5870   24.5030   11.1240 C   0  0  0  0  0  0  0  0  0  0  0  0
   24.9260   24.4420   10.9630 N   0  0  0  0  0  0  0  0  0  0  0  0
   25.0158   28.3033   16.4989 H   0  0  0  0  0  0  0  0  0  0  0  0
   26.1424   28.9321   15.2491 H   0  0  0  0  0  0  0  0  0  0  0  0
   25.6789   27.1966   15.2491 H   0  0  0  0  0  0  0  0  0  0  0  0
   29.1131   27.0489   18.0567 H   0  0  0  0  0  0  0  0  0  0  0  0
   28.9991   25.4253   17.2711 H   0  0  0  0  0  0  0  0  0  0  0  0
   30.8611   27.7227   16.7054 H   0  0  0  0  0  0  0  0  0  0  0  0
   31.1770   25.9281   16.8631 H   0  0  0  0  0  0  0  0  0  0  0  0
   30.4919   27.5552   14.4894 H   0  0  0  0  0  0  0  0  0  0  0  0
   31.4130   25.9795   14.6806 H   0  0  0  0  0  0  0  0  0  0  0  0
   27.5881   27.0397   14.2032 H   0  0  0  0  0  0  0  0  0  0  0  0
   27.3205   25.4492   15.0818 H   0  0  0  0  0  0  0  0  0  0  0  0
   30.0769   26.5486   12.5112 H   0  0  0  0  0  0  0  0  0  0  0  0
   29.4320   24.8261   12.4520 H   0  0  0  0  0  0  0  0  0  0  0  0
   27.3318   26.7426   13.0326 H   0  0  0  0  0  0  0  0  0  0  0  0
   28.1933   27.1046   11.4704 H   0  0  0  0  0  0  0  0  0  0  0  0
   27.4082   25.2661   10.4416 H   0  0  0  0  0  0  0  0  0  0  0  0
   27.5029   24.2715   11.9765 H   0  0  0  0  0  0  0  0  0  0  0  0
   25.7584   26.9269   13.1243 H   0  0  0  0  0  0  0  0  0  0  0  0
   23.2678   26.9983   13.3844 H   0  0  0  0  0  0  0  0  0  0  0  0
   21.8540   25.3979   12.0639 H   0  0  0  0  0  0  0  0  0  0  0  0
   22.9649   23.8037   10.5462 H   0  0  0  0  0  0  0  0  0  0  0  0
  2  1  1  0
  3  2  2  0
  4  2  1  0
  5  4  1  0
  6  5  1  0
  7  6  1  0
  8  7  1  0
  9  8  1  0
  9  4  1  0
  8 10  1  6
 11 10  2  0
 12 10  1  0
 13  8  1  0
 14 13  1  0
 15 14  1  0
 16 15  1  0
 17 16  2  0
 18 17  1  0
 19 18  2  0
 20 19  1  0
 21 20  2  0
 21 16  1  0
  1 22  1  0
  1 23  1  0
  1 24  1  0
  5 25  1  0
  5 26  1  0
  6 27  1  0
  6 28  1  0
  7 29  1  0
  7 30  1  0
  9 31  1  0
  9 32  1  0
 13 33  1  0
 13 34  1  0
 14 35  1  0
 14 36  1  0
 15 37  1  0
 15 38  1  0
 17 39  1  0
 18 40  1  0
 19 41  1  0
 20 42  1  0
M  CHG  1  12  -1
M  END
$$$$
=
     RDKit          3D

 19 20  0  0  0  0  0  0  0  0999 V2000
   19.4960   15.1760    4.7950 C   0  0  0  0  0  0  0  0  0  0  0  0
   19.6940   14.4950    5.9810 N   0  0  0  0  0  0  0  0  0  0  0  0
   20.6500   14.9110    6.8250 C   0  0  0  0  0  0  0  0  0  0  0  0
   21.4930   15.9460    6.6840 N   0  0  0  0  0  0  0  0  0  0  0  0
   21.2810   16.5920    5.5230 C   0  0  0  0  0  0  0  0  0  0  0  0
   20.3350   16.2860    4.5480 C   0  0  0  0  0  0  0  0  0  0  0  0
   20.5030   17.2540    3.5140 C   0  0  0  0  0  0  0  0  0  0  0  0
   21.5260   18.1050    3.8780 C   0  0  0  0  0  0  0  0  0  0  0  0
   21.9860   17.6890    5.0980 N   0  0  0  0  0  0  0  0  0  0  0  0
   23.0560   18.3040    5.8450 C   0  0  0  0  0  0  0  0  0  0  0  0
   18.6550   13.7300    3.0590 O   0  0  0  0  0  1  0  0  0  0  0  0
   18.4190   14.7440    3.7970 C   0  0  0  0  0  0  0  0  0  0  0  0
   17.3410   15.4240    3.7580 O   0  0  0  0  0  0  0  0  0  0  0  0
   20.7569   14.3289    7.7522 H   0  0  0  0  0  0  0  0  0  0  0  0
   19.9169   17.3121    2.5849 H   0  0  0  0  0  0  0  0  0  0  0  0
   21.9021   18.9592    3.2958 H   0  0  0  0  0  0  0  0  0  0  0  0
   22.8624   18.1927    6.9221 H   0  0  0  0  0  0  0  0  0  0  0  0
   24.0083   17.8154    5.5913 H   0  0  0  0  0  0  0  0  0  0  0  0
   23.1132   19.3728    5.5913 H   0  0  0  0  0  0  0  0  0  0  0  0
  2  1  2  0
  3  2  1  0
  4  3  2  0
  5  4  1  0
  6  1  1  0
  6  5  2  0
  7  6  1  0
  8  7  2  0
  9  8  1  0
  9  5  1  0
 10  9  1  0
 12 11  1  0
 12  1  1  0
 13 12  2  0
  3 14  1  0
  7 15  1  0
  8 16  1  0
 10 17  1  0
 10 18  1  0
 10 19  1  0
M  CHG  1  11  -1
M  END
$$$$
=
     RDKit          3D

 36 38  0  0  0  0  0  0  0  0999 V2000
   17.3470   15.7650    4.9020 C   0  0  2  0  0  0  0  0  0  0  0  0
   16.5260   16.1860    6.1350 C   0  0  0  0  0  0  0  0  0  0  0  0
   16.8060   14.5780    4.0900 C   0  0  0  0  0  0  0  0  0  0  0  0
   17.7110   13.7030    3.4600 C   0  0  0  0  0  0  0  0  0  0  0  0
   17.2740   12.5970    2.7390 C   0  0  0  0  0  0  0  0  0  0  0  0
   15.9160   12.3300    2.6360 C   0  0  0  0  0  0  0  0  0  0  0  0
   14.9740   13.1720    3.2380 C   0  0  0  0  0  0  0  0  0  0  0  0
   15.4010   14.3160    3.9670 C   0  0  0  0  0  0  0  0  0  0  0  0
   14.3820   15.1240    4.5270 C   0  0  0  0  0  0  0  0  0  0  0  0
   13.0230   14.8230    4.3880 C   0  0  0  0  0  0  0  0  0  0  0  0
   12.6340   13.6970    3.6780 C   0  0  0  0  0  0  0  0  0  0  0  0
   13.6050   12.8800    3.1050 C   0  0  0  0  0  0  0  0  0  0  0  0
   19.8430   16.3980    4.4260 C   0  0  0  0  0  0  0  0  0  0  0  0
   21.1860   16.3560    4.8640 C   0  0  0  0  0  0  0  0  0  0  0  0
   21.5650   15.6610    6.0100 C   0  0  0  0  0  0  0  0  0  0  0  0
   20.6040   14.9860    6.7470 C   0  0  0  0  0  0  0  0  0  0  0  0
   19.2680   15.0290    6.3450 C   0  0  0  0  0  0  0  0  0  0  0  0
   18.8500   15.7500    5.1980 C   0  0  0  0  0  0  0  0  0  0  0  0
   19.3110   18.3640    3.1990 O   0  0  0  0  0  1  0  0  0  0  0  0
   19.5920   17.1290    3.1270 C   0  0  0  0  0  0  0  0  0  0  0  0
   19.6020   16.4270    2.0660 O   0  0  0  0  0  0  0  0  0  0  0  0
   17.1955   16.5690    4.1667 H   0  0  0  0  0  0  0  0  0  0  0  0
   17.0694   15.9074    7.0499 H   0  0  0  0  0  0  0  0  0  0  0  0
   16.3709   17.2749    6.1179 H   0  0  0  0  0  0  0  0  0  0  0  0
   15.5513   15.6765    6.1179 H   0  0  0  0  0  0  0  0  0  0  0  0
   18.7905   13.8989    3.5400 H   0  0  0  0  0  0  0  0  0  0  0  0
   18.0039   11.9345    2.2509 H   0  0  0  0  0  0  0  0  0  0  0  0
   15.5763   11.4469    2.0750 H   0  0  0  0  0  0  0  0  0  0  0  0
   14.6699   16.0224    5.0927 H   0  0  0  0  0  0  0  0  0  0  0  0
   12.2643   15.4782    4.8410 H   0  0  0  0  0  0  0  0  0  0  0  0
   11.5674   13.4514    3.5685 H   0  0  0  0  0  0  0  0  0  0  0  0
   13.2955   11.9898    2.5379 H   0  0  0  0  0  0  0  0  0  0  0  0
   21.9542   16.8875    4.2831 H   0  0  0  0  0  0  0  0  0  0  0  0
   22.6180   15.6478    6.3277 H   0  0  0  0  0  0  0  0  0  0  0  0
   20.8931   14.4192    7.6443 H   0  0  0  0  0  0  0  0  0  0  0  0
   18.5159   14.4865    6.9366 H   0  0  0  0  0  0  0  0  0  0  0  0
  2  1  1  0
  3  1  1  0
  4  3  2  0
  5  4  1  0
  6  5  2  0
  7  6  1  0
  8  7  2  0
  8  3  1  0
  9  8  1  0
 10  9  2  0
 11 10  1  0
 12 11  2  0
 12  7  1  0
 14 13  2  0
 15 14  1  0
 16 15  2  0
 17 16  1  0
 18  1  1  0
 18 17  2  0
 18 13  1  0
 20 19  1  0
 20 13  1  0
 21 20  2  0
  1 22  1  6
  2 23  1  0
  2 24  1  0
  2 25  1  0
  4 26  1  0
  5 27  1  0
  6 28  1  0
  9 29  1  0
 10 30  1  0
 11 31  1  0
 12 32  1  0
 14 33  1  0
 15 34  1  0
 16 35  1  0
 17 36  1  0
M  CHG  1  19  -1
M  END
$$$$
=
     RDKit          3D

 32 32  0  0  0  0  0  0  0  0999 V2000
   17.2390   15.2760    3.6810 C   0  0  1  0  0  0  0  0  0  0  0  0
   16.3700   16.0540    4.6810 C   0  0  0  0  0  0  0  0  0  0  0  0
   16.5850   15.5830    6.4550 S   0  0  0  0  0  0  0  0  0  0  0  0
   18.4100   15.4780    6.5200 C   0  0  0  0  0  0  0  0  0  0  0  0
   18.9960   14.7000    5.3430 C   0  0  0  0  0  0  0  0  0  0  0  0
   18.6710   15.3590    4.0820 N   0  0  0  0  0  0  0  0  0  0  0  0
   19.4730   16.3380    3.5280 C   0  0  0  0  0  0  0  0  0  0  0  0
   19.1340   17.0800    2.6150 O   0  0  0  0  0  0  0  0  0  0  0  0
   17.4690   13.0020    2.9270 O   0  0  0  0  0  1  0  0  0  0  0  0
   16.6550   13.8610    3.3770 C   0  0  0  0  0  0  0  0  0  0  0  0
   15.4100   13.7320    3.5770 O   0  0  0  0  0  0  0  0  0  0  0  0
   20.6870   16.4100    4.1410 O   0  0  0  0  0  0  0  0  0  0  0  0
   21.1170   17.6190    4.8110 C   0  0  0  0  0  0  0  0  0  0  0  0
   21.9740   17.1240    5.9860 C   0  0  0  0  0  0  0  0  0  0  0  0
   19.9250   18.4010    5.3740 C   0  0  0  0  0  0  0  0  0  0  0  0
   21.9950   18.4850    3.9010 C   0  0  0  0  0  0  0  0  0  0  0  0
   17.2094   15.7478    2.6878 H   0  0  0  0  0  0  0  0  0  0  0  0
   16.6130   17.1222    4.5820 H   0  0  0  0  0  0  0  0  0  0  0  0
   15.3273   15.8116    4.4280 H   0  0  0  0  0  0  0  0  0  0  0  0
   18.8222   16.4978    6.5084 H   0  0  0  0  0  0  0  0  0  0  0  0
   18.6802   14.9416    7.4415 H   0  0  0  0  0  0  0  0  0  0  0  0
   20.0893   14.6470    5.4525 H   0  0  0  0  0  0  0  0  0  0  0  0
   18.5660   13.6876    5.3364 H   0  0  0  0  0  0  0  0  0  0  0  0
   21.4917   17.4026    6.9346 H   0  0  0  0  0  0  0  0  0  0  0  0
   22.0728   16.0298    5.9324 H   0  0  0  0  0  0  0  0  0  0  0  0
   22.9712   17.5852    5.9324 H   0  0  0  0  0  0  0  0  0  0  0  0
   19.9584   18.3791    6.4733 H   0  0  0  0  0  0  0  0  0  0  0  0
   19.9733   19.4435    5.0264 H   0  0  0  0  0  0  0  0  0  0  0  0
   18.9879   17.9416    5.0264 H   0  0  0  0  0  0  0  0  0  0  0  0
   22.6435   19.1246    4.5178 H   0  0  0  0  0  0  0  0  0  0  0  0
   22.6166   17.8365    3.2660 H   0  0  0  0  0  0  0  0  0  0  0  0
   21.3552   19.1154    3.2660 H   0  0  0  0  0  0  0  0  0  0  0  0
  2  1  1  0
  3  2  1  0
  4  3  1  0
  5  4  1  0
  6  5  1  0
  6  1  1  0
  7  6  1  0
  8  7  2  0
 10  9  1  0
 10  1  1  0
 11 10  2  0
 12  7  1  0
 13 12  1  0
 14 13  1  0
 15 13  1  0
 16 13  1  0
  1 17  1  6
  2 18  1  0
  2 19  1  0
  4 20  1  0
  4 21  1  0
  5 22  1  0
  5 23  1  0
 14 24  1  0
 14 25  1  0
 14 26  1  0
 15 27  1  0
 15 28  1  0
 15 29  1  0
 16 30  1  0
 16 31  1  0
 16 32  1  0
M  CHG  1   9  -1
M  END
$$$$
=
     RDKit          3D

 32 33  0  0  0  0  0  0  0  0999 V2000
   27.6510   26.7470   13.8400 C   0  0  0  0  0  0  0  0  0  0  0  0
   28.9380   26.8960   14.0660 N   0  0  0  0  0  0  0  0  0  0  0  0
   29.1370   27.4570   15.3260 C   0  0  0  0  0  0  0  0  0  0  0  0
   27.9690   27.7510   16.0050 C   0  0  0  0  0  0  0  0  0  0  0  0
   26.6100   27.2210   15.1150 S   0  0  0  0  0  0  0  0  0  0  0  0
   30.5330   27.6980   15.7790 C   0  0  0  0  0  0  0  0  0  0  0  0
   29.0710   23.5530   13.6740 C   0  0  0  0  0  0  0  0  0  0  0  0
   27.9140   23.5060   12.6980 N   0  0  0  0  0  4  0  0  0  0  0  0
   26.5840   23.8750   13.3220 C   0  0  0  0  0  0  0  0  0  0  0  0
   26.0170   25.1820   12.7670 C   0  0  0  0  0  0  0  0  0  0  0  0
   27.0810   26.2590   12.5320 C   0  0  0  0  0  0  0  0  0  0  0  0
   28.1920   25.7390   11.6000 C   0  0  0  0  0  0  0  0  0  0  0  0
   28.1990   24.2270   11.4180 C   0  0  0  0  0  0  0  0  0  0  0  0
   27.8800   28.4800   17.3990 C   0  0  0  0  0  0  0  0  0  0  0  0
   27.3880   29.6470   17.3930 O   0  0  0  0  0  0  0  0  0  0  0  0
   28.2830   27.8240   18.4040 O   0  0  0  0  0  1  0  0  0  0  0  0
   30.5659   27.7037   16.8785 H   0  0  0  0  0  0  0  0  0  0  0  0
   31.1856   26.8992   15.3968 H   0  0  0  0  0  0  0  0  0  0  0  0
   30.8800   28.6693   15.3968 H   0  0  0  0  0  0  0  0  0  0  0  0
   28.6833   23.5373   14.7033 H   0  0  0  0  0  0  0  0  0  0  0  0
   29.7215   22.6805   13.5138 H   0  0  0  0  0  0  0  0  0  0  0  0
   29.6486   24.4753   13.5138 H   0  0  0  0  0  0  0  0  0  0  0  0
   27.8139   22.5153   12.4346 H   0  0  0  0  0  0  0  0  0  0  0  0
   25.8651   23.0665   13.1232 H   0  0  0  0  0  0  0  0  0  0  0  0
   26.7492   24.0147   14.4005 H   0  0  0  0  0  0  0  0  0  0  0  0
   25.5214   24.9673   11.8087 H   0  0  0  0  0  0  0  0  0  0  0  0
   25.3180   25.5765   13.5192 H   0  0  0  0  0  0  0  0  0  0  0  0
   26.5983   27.1140   12.0361 H   0  0  0  0  0  0  0  0  0  0  0  0
   28.0593   26.2045   10.6122 H   0  0  0  0  0  0  0  0  0  0  0  0
   29.1496   26.0045   12.0718 H   0  0  0  0  0  0  0  0  0  0  0  0
   27.4312   23.9549   10.6788 H   0  0  0  0  0  0  0  0  0  0  0  0
   29.2023   23.9308   11.0778 H   0  0  0  0  0  0  0  0  0  0  0  0
  2  1  2  0
  3  2  1  0
  4  3  2  0
  5  1  1  0
  5  4  1  0
  6  3  1  0
  8  7  1  0
  9  8  1  0
 10  9  1  0
 11 10  1  0
 11  1  1  0
 12 11  1  0
 13 12  1  0
 13  8  1  0
 14  4  1  0
 15 14  2  0
 16 14  1  0
  6 17  1  0
  6 18  1  0
  6 19  1  0
  7 20  1  0
  7 21  1  0
  7 22  1  0
  8 23  1  0
  9 24  1  0
  9 25  1  0
 10 26  1  0
 10 27  1  0
 11 28  1  0
 12 29  1  0
 12 30  1  0
 13 31  1  0
 13 32  1  0
M  CHG  2   8   1  16  -1
M  END
$$$$
=
     RDKit          3D

 47 47  0  0  0  0  0  0  0  0999 V2000
   26.1140   26.2840   15.3340 C   0  0  1  0  0  0  0  0  0  0  0  0
   26.4680   26.8190   14.0210 O   0  0  0  0  0  0  0  0  0  0  0  0
   25.4570   26.5510   13.0210 C   0  0  2  0  0  0  0  0  0  0  0  0
   24.1630   26.6230   13.6250 O   0  0  0  0  0  0  0  0  0  0  0  0
   23.1520   26.6820   12.6850 C   0  0  0  0  0  0  0  0  0  0  0  0
   23.2320   25.9270   11.5780 C   0  0  0  0  0  0  0  0  0  0  0  0
   24.4350   25.0750   11.2860 C   0  0  1  0  0  0  0  0  0  0  0  0
   25.5920   25.1800   12.3310 C   0  0  1  0  0  0  0  0  0  0  0  0
   22.0130   27.7190   12.9930 C   0  0  0  0  0  0  0  0  0  0  0  0
   22.1460   28.3290   14.1040 O   0  0  0  0  0  0  0  0  0  0  0  0
   21.1350   27.8680   12.0940 O   0  0  0  0  0  1  0  0  0  0  0  0
   23.9780   23.7310   11.1230 O   0  0  0  0  0  0  0  0  0  0  0  0
   26.8570   25.1070   11.6620 O   0  0  0  0  0  0  0  0  0  0  0  0
   27.7230   23.7330   11.7660 S   0  0  0  0  0  6  0  0  0  0  0  0
   28.0980   23.4280   10.3910 O   0  0  0  0  0  0  0  0  0  0  0  0
   26.7990   22.7830   12.3750 O   0  0  0  0  0  0  0  0  0  0  0  0
   28.8520   24.0880   12.6270 O   0  0  0  0  0  1  0  0  0  0  0  0
   27.3060   25.4160   15.8300 C   0  0  1  0  0  0  0  0  0  0  0  0
   27.3380   24.1370   15.1480 O   0  0  0  0  0  0  0  0  0  0  0  0
   28.7140   26.0620   15.7700 C   0  0  2  0  0  0  0  0  0  0  0  0
   29.8220   25.0420   15.8680 C   0  0  0  0  0  0  0  0  0  0  0  0
   30.7880   25.0180   15.1040 O   0  0  0  0  0  0  0  0  0  0  0  0
   28.8010   27.1430   16.7810 N   0  0  0  0  0  0  0  0  0  0  0  0
   29.2520   28.6540   16.1880 S   0  0  0  0  0  6  0  0  0  0  0  0
   28.3540   29.5350   16.9160 O   0  0  0  0  0  0  0  0  0  0  0  0
   28.9970   28.5270   14.7620 O   0  0  0  0  0  0  0  0  0  0  0  0
   30.6520   28.7260   16.5750 O   0  0  0  0  0  1  0  0  0  0  0  0
   25.5800   27.3630   16.3270 C   0  0  1  0  0  0  0  0  0  0  0  0
   25.5750   28.6470   15.6760 O   0  0  0  0  0  0  0  0  0  0  0  0
   24.2270   27.1000   17.0060 C   0  0  0  0  0  0  0  0  0  0  0  0
   24.0610   27.8310   18.2160 O   0  0  0  0  0  0  0  0  0  0  0  0
   25.2359   25.6256   15.2594 H   0  0  0  0  0  0  0  0  0  0  0  0
   25.5958   27.3159   12.2428 H   0  0  0  0  0  0  0  0  0  0  0  0
   22.3942   25.9321   10.8652 H   0  0  0  0  0  0  0  0  0  0  0  0
   24.9024   25.4521   10.3644 H   0  0  0  0  0  0  0  0  0  0  0  0
   25.5338   24.3600   13.0619 H   0  0  0  0  0  0  0  0  0  0  0  0
   23.8382   23.3198   12.0126 H   0  0  0  0  0  0  0  0  0  0  0  0
   27.0934   25.2962   16.9026 H   0  0  0  0  0  0  0  0  0  0  0  0
   27.3563   23.4070   15.8164 H   0  0  0  0  0  0  0  0  0  0  0  0
   28.8593   26.5199   14.7804 H   0  0  0  0  0  0  0  0  0  0  0  0
   29.7641   24.2821   16.6612 H   0  0  0  0  0  0  0  0  0  0  0  0
   27.8760   27.2388   17.2239 H   0  0  0  0  0  0  0  0  0  0  0  0
   26.2861   27.3248   17.1696 H   0  0  0  0  0  0  0  0  0  0  0  0
   25.5722   29.3634   16.3593 H   0  0  0  0  0  0  0  0  0  0  0  0
   23.4242   27.3862   16.3106 H   0  0  0  0  0  0  0  0  0  0  0  0
   24.1883   26.0303   17.2596 H   0  0  0  0  0  0  0  0  0  0  0  0
   24.1982   27.2267   18.9881 H   0  0  0  0  0  0  0  0  0  0  0  0
  2  1  1  0
  3  2  1  0
  4  3  1  0
  5  4  1  0
  6  5  2  0
  7  6  1  0
  8  7  1  0
  8  3  1  0
  9  5  1  0
 10  9  2  0
 11  9  1  0
 12  7  1  0
 13  8  1  0
 14 13  1  0
 15 14  2  0
 16 14  2  0
 17 14  1  0
 18  1  1  0
 19 18  1  0
 20 18  1  0
 21 20  1  0
 22 21  2  0
 23 20  1  0
 24 23  1  0
 25 24  2  0
 26 24  2  0
 27 24  1  0
 28  1  1  0
 29 28  1  0
 30 28  1  0
 31 30  1  0
  1 32  1  6
  3 33  1  6
  6 34  1  0
  7 35  1  6
  8 36  1  1
 12 37  1  0
 18 38  1  1
 19 39  1  0
 20 40  1  6
 21 41  1  0
 23 42  1  0
 28 43  1  1
 29 44  1  0
 30 45  1  0
 30 46  1  0
 31 47  1  0
M  CHG  3  11  -1  17  -1  27  -1
M  END
$$$$
=
     RDKit          3D

 25 25  0  0  0  0  0  0  0  0999 V2000
   16.0660   14.0420    3.6100 C   0  0  0  0  0  0  0  0  0  0  0  0
   14.9610   14.4940    4.3300 C   0  0  0  0  0  0  0  0  0  0  0  0
   15.0830   15.6110    5.1440 C   0  0  0  0  0  0  0  0  0  0  0  0
   16.3090   16.2620    5.2340 C   0  0  0  0  0  0  0  0  0  0  0  0
   17.3990   15.7720    4.5150 C   0  0  0  0  0  0  0  0  0  0  0  0
   17.2710   14.6900    3.7100 N   0  0  0  0  0  0  0  0  0  0  0  0
   14.7260   12.4200    2.4040 O   0  0  0  0  0  1  0  0  0  0  0  0
   15.9040   12.8080    2.6930 C   0  0  0  0  0  0  0  0  0  0  0  0
   16.9780   12.2480    2.2840 O   0  0  0  0  0  0  0  0  0  0  0  0
   18.7660   16.4530    4.5350 C   0  0  0  0  0  0  0  0  0  0  0  0
   18.6750   17.7390    5.3800 C   0  0  0  0  0  0  0  0  0  0  0  0
   19.2170   16.8530    3.1100 C   0  0  0  0  0  0  0  0  0  0  0  0
   19.8390   15.5280    5.1150 C   0  0  0  0  0  0  0  0  0  0  0  0
   20.5000   14.8200    4.1730 F   0  0  0  0  0  0  0  0  0  0  0  0
   19.3350   14.6390    6.0070 F   0  0  0  0  0  0  0  0  0  0  0  0
   20.7760   16.2390    5.7970 F   0  0  0  0  0  0  0  0  0  0  0  0
   13.9979   13.9681    4.2532 H   0  0  0  0  0  0  0  0  0  0  0  0
   14.2169   15.9789    5.7137 H   0  0  0  0  0  0  0  0  0  0  0  0
   16.4178   17.1553    5.8666 H   0  0  0  0  0  0  0  0  0  0  0  0
   18.6935   17.4778    6.4484 H   0  0  0  0  0  0  0  0  0  0  0  0
   19.5292   18.3918    5.1473 H   0  0  0  0  0  0  0  0  0  0  0  0
   17.7374   18.2651    5.1473 H   0  0  0  0  0  0  0  0  0  0  0  0
   20.0385   17.5816    3.1764 H   0  0  0  0  0  0  0  0  0  0  0  0
   19.5625   15.9590    2.5703 H   0  0  0  0  0  0  0  0  0  0  0  0
   18.3706   17.3028    2.5703 H   0  0  0  0  0  0  0  0  0  0  0  0
  2  1  2  0
  3  2  1  0
  4  3  2  0
  5  4  1  0
  6  1  1  0
  6  5  2  0
  8  7  1  0
  8  1  1  0
  9  8  2  0
 10  5  1  0
 11 10  1  0
 12 10  1  0
 13 10  1  0
 14 13  1  0
 15 13  1  0
 16 13  1  0
  2 17  1  0
  3 18  1  0
  4 19  1  0
 11 20  1  0
 11 21  1  0
 11 22  1  0
 12 23  1  0
 12 24  1  0
 12 25  1  0
M  CHG  1   7  -1
M  END
$$$$
=
     RDKit          3D

 22 23  0  0  0  0  0  0  0  0999 V2000
   19.0010   16.2640    5.4820 C   0  0  1  0  0  0  0  0  0  0  0  0
   17.8380   15.3830    5.2880 N   0  0  0  0  0  0  0  0  0  0  0  0
   18.1450   14.5040    4.1420 C   0  0  2  0  0  0  0  0  0  0  0  0
   19.5160   14.6540    3.7090 O   0  0  0  0  0  0  0  0  0  0  0  0
   20.0580   15.5280    4.6600 C   0  0  0  0  0  0  0  0  0  0  0  0
   21.3910   15.6430    4.7790 C   0  0  0  0  0  0  0  0  0  0  0  0
   17.0180   15.1880    3.3620 C   0  0  0  0  0  0  0  0  0  0  0  0
   16.6860   15.8490    4.7120 C   0  0  0  0  0  0  0  0  0  0  0  0
   15.7430   16.4330    5.1960 O   0  0  0  0  0  0  0  0  0  0  0  0
   18.8530   18.6250    5.8190 O   0  0  0  0  0  1  0  0  0  0  0  0
   18.9930   17.7300    4.9230 C   0  0  0  0  0  0  0  0  0  0  0  0
   19.1880   17.8830    3.6850 O   0  0  0  0  0  0  0  0  0  0  0  0
   22.1000   16.4950    5.7800 C   0  0  0  0  0  0  0  0  0  0  0  0
   22.0190   15.8880    7.0550 O   0  0  0  0  0  0  0  0  0  0  0  0
   19.1103   16.4181    6.5657 H   0  0  0  0  0  0  0  0  0  0  0  0
   18.1404   13.4045    4.1733 H   0  0  0  0  0  0  0  0  0  0  0  0
   22.0118   15.0616    4.0815 H   0  0  0  0  0  0  0  0  0  0  0  0
   17.3456   15.8767    2.5693 H   0  0  0  0  0  0  0  0  0  0  0  0
   16.2791   14.6379    2.7608 H   0  0  0  0  0  0  0  0  0  0  0  0
   23.1559   16.6003    5.4901 H   0  0  0  0  0  0  0  0  0  0  0  0
   21.6296   17.4887    5.8156 H   0  0  0  0  0  0  0  0  0  0  0  0
   22.1114   16.5804    7.7566 H   0  0  0  0  0  0  0  0  0  0  0  0
  2  1  1  0
  3  2  1  0
  4  3  1  0
  5  4  1  0
  5  1  1  0
  6  5  2  0
  7  3  1  0
  8  7  1  0
  8  2  1  0
  9  8  2  0
 11  1  1  0
 11 10  1  0
 12 11  2  0
 13  6  1  0
 14 13  1  0
  1 15  1  1
  3 16  1  1
  6 17  1  0
  7 18  1  0
  7 19  1  0
 13 20  1  0
 13 21  1  0
 14 22  1  0
M  CHG  1  10  -1
M  END
$$$$
=
     RDKit          3D

 35 36  0  0  0  0  0  0  0  0999 V2000
   14.7910   14.2170    4.1550 C   0  0  0  0  0  0  0  0  0  0  0  0
   14.8140   14.9150    5.3680 C   0  0  0  0  0  0  0  0  0  0  0  0
   15.8830   15.7480    5.6780 C   0  0  0  0  0  0  0  0  0  0  0  0
   16.9040   15.8600    4.7470 C   0  0  0  0  0  0  0  0  0  0  0  0
   16.9300   15.1920    3.5570 N   0  0  0  0  0  0  0  0  0  0  0  0
   15.8670   14.3870    3.2950 C   0  0  0  0  0  0  0  0  0  0  0  0
   13.9010   12.0720    3.7460 O   0  0  0  0  0  1  0  0  0  0  0  0
   13.6560   13.3150    3.7720 C   0  0  0  0  0  0  0  0  0  0  0  0
   12.5510   13.8800    3.5110 O   0  0  0  0  0  0  0  0  0  0  0  0
   18.1060   16.7370    4.9850 C   0  0  0  0  0  0  0  0  0  0  0  0
   19.3400   16.1000    4.3560 N   0  0  0  0  0  4  0  0  0  0  0  0
   20.1970   16.9860    3.5150 C   0  0  0  0  0  0  0  0  0  0  0  0
   20.7740   18.1930    4.2400 C   0  0  0  0  0  0  0  0  0  0  0  0
   21.2430   18.0260    5.6820 C   0  0  0  0  0  0  0  0  0  0  0  0
   21.8420   16.6690    6.0290 C   0  0  0  0  0  0  0  0  0  0  0  0
   20.7780   15.6240    6.3610 C   0  0  0  0  0  0  0  0  0  0  0  0
   20.0380   15.0600    5.1580 C   0  0  0  0  0  0  0  0  0  0  0  0
   13.9823   14.8039    6.0793 H   0  0  0  0  0  0  0  0  0  0  0  0
   15.9175   16.2993    6.6293 H   0  0  0  0  0  0  0  0  0  0  0  0
   15.8588   13.8363    2.3428 H   0  0  0  0  0  0  0  0  0  0  0  0
   17.9334   17.7245    4.5323 H   0  0  0  0  0  0  0  0  0  0  0  0
   18.2660   16.8495    6.0675 H   0  0  0  0  0  0  0  0  0  0  0  0
   18.9019   15.5157    3.6297 H   0  0  0  0  0  0  0  0  0  0  0  0
   21.0346   16.3860    3.1297 H   0  0  0  0  0  0  0  0  0  0  0  0
   19.5462   17.3836    2.7223 H   0  0  0  0  0  0  0  0  0  0  0  0
   21.6398   18.5382    3.6558 H   0  0  0  0  0  0  0  0  0  0  0  0
   19.9267   18.8906    4.3138 H   0  0  0  0  0  0  0  0  0  0  0  0
   22.0063   18.7929    5.8801 H   0  0  0  0  0  0  0  0  0  0  0  0
   20.3409   18.1233    6.3038 H   0  0  0  0  0  0  0  0  0  0  0  0
   22.4292   16.3131    5.1696 H   0  0  0  0  0  0  0  0  0  0  0  0
   22.4695   16.8008    6.9228 H   0  0  0  0  0  0  0  0  0  0  0  0
   21.2696   14.7893    6.8821 H   0  0  0  0  0  0  0  0  0  0  0  0
   20.0231   16.1364    6.9755 H   0  0  0  0  0  0  0  0  0  0  0  0
   19.2916   14.3354    5.5155 H   0  0  0  0  0  0  0  0  0  0  0  0
   20.7886   14.5931    4.5034 H   0  0  0  0  0  0  0  0  0  0  0  0
  2  1  2  0
  3  2  1  0
  4  3  2  0
  5  4  1  0
  6  1  1  0
  6  5  2  0
  8  7  1  0
  8  1  1  0
  9  8  2  0
 10  4  1  0
 11 10  1  0
 12 11  1  0
 13 12  1  0
 14 13  1  0
 15 14  1  0
 16 15  1  0
 17 11  1  0
 17 16  1  0
  2 18  1  0
  3 19  1  0
  6 20  1  0
 10 21  1  0
 10 22  1  0
 11 23  1  0
 12 24  1  0
 12 25  1  0
 13 26  1  0
 13 27  1  0
 14 28  1  0
 14 29  1  0
 15 30  1  0
 15 31  1  0
 16 32  1  0
 16 33  1  0
 17 34  1  0
 17 35  1  0
M  CHG  2   7  -1  11   1
M  END
$$$$
=
     RDKit          3D

 40 41  0  0  0  0  0  0  0  0999 V2000
   30.4350   24.7800   14.7830 O   0  0  0  0  0  0  0  0  0  0  0  0
   29.6010   25.6490   14.5170 C   0  0  0  0  0  0  0  0  0  0  0  0
   28.9470   25.6600   13.2790 N   0  0  0  0  0  0  0  0  0  0  0  0
   28.8720   24.3680   12.6070 C   0  0  0  0  0  0  0  0  0  0  0  0
   28.1890   24.4190   11.2370 C   0  0  0  0  0  0  0  0  0  0  0  0
   26.8160   25.0950   11.2660 N   0  0  0  0  0  4  0  0  0  0  0  0
   26.6870   26.1540   12.3850 C   0  0  0  0  0  0  0  0  0  0  0  0
   28.0660   26.7140   12.7670 C   0  0  0  0  0  0  0  0  0  0  0  0
   29.3780   26.7240   15.5180 C   0  0  0  0  0  0  0  0  0  0  0  0
   30.3420   27.7440   15.5680 C   0  0  0  0  0  0  0  0  0  0  0  0
   30.2150   28.7940   16.4790 C   0  0  0  0  0  0  0  0  0  0  0  0
   29.1290   28.8280   17.3500 C   0  0  0  0  0  0  0  0  0  0  0  0
   28.1800   27.8050   17.3230 C   0  0  0  0  0  0  0  0  0  0  0  0
   28.3030   26.7320   16.4230 C   0  0  0  0  0  0  0  0  0  0  0  0
   27.2650   25.6600   16.4200 C   0  0  0  0  0  0  0  0  0  0  0  0
   26.1460   25.9020   15.8750 O   0  0  0  0  0  0  0  0  0  0  0  0
   27.5350   24.6190   17.0990 O   0  0  0  0  0  1  0  0  0  0  0  0
   25.6450   24.1240   11.1920 C   0  0  0  0  0  0  0  0  0  0  0  0
   26.0760   22.6720   11.0130 C   0  0  0  0  0  0  0  0  0  0  0  0
   24.7380   24.3060   12.4060 C   0  0  0  0  0  0  0  0  0  0  0  0
   29.8956   23.9892   12.4697 H   0  0  0  0  0  0  0  0  0  0  0  0
   28.2605   23.7121   13.2441 H   0  0  0  0  0  0  0  0  0  0  0  0
   28.8373   24.9764   10.5449 H   0  0  0  0  0  0  0  0  0  0  0  0
   28.0318   23.3793   10.9141 H   0  0  0  0  0  0  0  0  0  0  0  0
   26.7560   25.6245   10.3846 H   0  0  0  0  0  0  0  0  0  0  0  0
   26.0489   26.9771   12.0309 H   0  0  0  0  0  0  0  0  0  0  0  0
   26.2414   25.6785   13.2712 H   0  0  0  0  0  0  0  0  0  0  0  0
   28.5281   27.1659   11.8769 H   0  0  0  0  0  0  0  0  0  0  0  0
   27.9280   27.4653   13.5585 H   0  0  0  0  0  0  0  0  0  0  0  0
   31.2033   27.7153   14.8844 H   0  0  0  0  0  0  0  0  0  0  0  0
   30.9709   29.5926   16.5088 H   0  0  0  0  0  0  0  0  0  0  0  0
   29.0191   29.6614   18.0595 H   0  0  0  0  0  0  0  0  0  0  0  0
   27.3252   27.8387   18.0145 H   0  0  0  0  0  0  0  0  0  0  0  0
   25.0738   24.3679   10.2842 H   0  0  0  0  0  0  0  0  0  0  0  0
   26.2143   22.2062   11.9999 H   0  0  0  0  0  0  0  0  0  0  0  0
   25.3013   22.1257   10.4550 H   0  0  0  0  0  0  0  0  0  0  0  0
   27.0233   22.6368   10.4550 H   0  0  0  0  0  0  0  0  0  0  0  0
   25.3289   24.1874   13.3262 H   0  0  0  0  0  0  0  0  0  0  0  0
   24.2924   25.3115   12.3834 H   0  0  0  0  0  0  0  0  0  0  0  0
   23.9390   23.5503   12.3834 H   0  0  0  0  0  0  0  0  0  0  0  0
  2  1  2  0
  3  2  1  0
  4  3  1  0
  5  4  1  0
  6  5  1  0
  7  6  1  0
  8  7  1  0
  8  3  1  0
  9  2  1  0
 10  9  2  0
 11 10  1  0
 12 11  2  0
 13 12  1  0
 14  9  1  0
 14 13  2  0
 15 14  1  0
 16 15  2  0
 17 15  1  0
 18  6  1  0
 19 18  1  0
 20 18  1  0
  4 21  1  0
  4 22  1  0
  5 23  1  0
  5 24  1  0
  6 25  1  0
  7 26  1  0
  7 27  1  0
  8 28  1  0
  8 29  1  0
 10 30  1  0
 11 31  1  0
 12 32  1  0
 13 33  1  0
 18 34  1  0
 19 35  1  0
 19 36  1  0
 19 37  1  0
 20 38  1  0
 20 39  1  0
 20 40  1  0
M  CHG  2   6   1  17  -1
M  END
$$$$
=
     RDKit          3D

 40 41  0  0  0  0  0  0  0  0999 V2000
   25.8480   25.9900   12.6850 C   0  0  0  0  0  0  0  0  0  0  0  0
   24.9490   25.9720   13.6670 N   0  0  0  0  0  0  0  0  0  0  0  0
   25.5790   26.6840   14.6410 N   0  0  0  0  0  0  0  0  0  0  0  0
   26.7460   27.2370   14.1470 C   0  0  0  0  0  0  0  0  0  0  0  0
   26.9280   26.7830   12.9140 N   0  0  0  0  0  0  0  0  0  0  0  0
   27.6680   28.2350   14.8000 C   0  0  2  0  0  0  0  0  0  0  0  0
   28.2170   29.3640   13.9440 C   0  0  0  0  0  0  0  0  0  0  0  0
   28.7370   27.5380   15.5280 N   0  0  0  0  0  0  0  0  0  0  0  0
   29.8170   26.8390   14.8770 C   0  0  0  0  0  0  0  0  0  0  0  0
   30.7350   26.4670   16.0250 C   0  0  0  0  0  0  0  0  0  0  0  0
   29.7800   26.2590   17.1900 C   0  0  0  0  0  0  0  0  0  0  0  0
   28.6410   27.1970   16.8720 C   0  0  0  0  0  0  0  0  0  0  0  0
   27.7970   27.5550   17.6770 O   0  0  0  0  0  0  0  0  0  0  0  0
   25.6490   25.2590   11.4100 C   0  0  0  0  0  0  0  0  0  0  0  0
   25.2770   23.8020   11.6660 C   0  0  0  0  0  0  0  0  0  0  0  0
   27.9680   23.7160   10.9930 C   0  0  0  0  0  0  0  0  0  0  0  0
   26.5260   22.6230   11.0270 S   0  0  0  0  0  0  0  0  0  0  0  0
   24.8430   26.9600   15.8520 C   0  0  0  0  0  0  0  0  0  0  0  0
   23.3780   26.6030   15.8050 C   0  0  0  0  0  0  0  0  0  0  0  0
   23.0200   25.5010   16.3010 O   0  0  0  0  0  0  0  0  0  0  0  0
   22.6530   27.5010   15.2790 O   0  0  0  0  0  1  0  0  0  0  0  0
   27.0084   28.7787   15.4924 H   0  0  0  0  0  0  0  0  0  0  0  0
   28.6050   30.1619   14.5943 H   0  0  0  0  0  0  0  0  0  0  0  0
   29.0294   28.9810   13.3090 H   0  0  0  0  0  0  0  0  0  0  0  0
   27.4140   29.7665   13.3090 H   0  0  0  0  0  0  0  0  0  0  0  0
   29.4495   25.9406   14.3595 H   0  0  0  0  0  0  0  0  0  0  0  0
   30.3166   27.4427   14.1050 H   0  0  0  0  0  0  0  0  0  0  0  0
   31.2897   25.5437   15.8016 H   0  0  0  0  0  0  0  0  0  0  0  0
   31.4986   27.2322   16.2283 H   0  0  0  0  0  0  0  0  0  0  0  0
   29.4322   25.2164   17.2339 H   0  0  0  0  0  0  0  0  0  0  0  0
   30.2424   26.4570   18.1683 H   0  0  0  0  0  0  0  0  0  0  0  0
   24.8407   25.7418   10.8412 H   0  0  0  0  0  0  0  0  0  0  0  0
   26.5901   25.2851   10.8412 H   0  0  0  0  0  0  0  0  0  0  0  0
   25.1751   23.6514   12.7509 H   0  0  0  0  0  0  0  0  0  0  0  0
   24.3345   23.6041   11.1344 H   0  0  0  0  0  0  0  0  0  0  0  0
   28.2757   23.9492   12.0230 H   0  0  0  0  0  0  0  0  0  0  0  0
   28.7949   23.2158   10.4677 H   0  0  0  0  0  0  0  0  0  0  0  0
   27.7099   24.6473   10.4677 H   0  0  0  0  0  0  0  0  0  0  0  0
   25.3068   26.3897   16.6703 H   0  0  0  0  0  0  0  0  0  0  0  0
   24.8887   28.0494   15.9971 H   0  0  0  0  0  0  0  0  0  0  0  0
  2  1  2  0
  3  2  1  0
  4  3  1  0
  5  4  2  0
  5  1  1  0
  6  4  1  0
  7  6  1  0
  8  6  1  0
  9  8  1  0
 10  9  1  0
 11 10  1  0
 12 11  1  0
 12  8  1  0
 13 12  2  0
 14  1  1  0
 15 14  1  0
 17 15  1  0
 17 16  1  0
 18  3  1  0
 19 18  1  0
 20 19  2  0
 21 19  1  0
  6 22  1  1
  7 23  1  0
  7 24  1  0
  7 25  1  0
  9 26  1  0
  9 27  1  0
 10 28  1  0
 10 29  1  0
 11 30  1  0
 11 31  1  0
 14 32  1  0
 14 33  1  0
 15 34  1  0
 15 35  1  0
 16 36  1  0
 16 37  1  0
 16 38  1  0
 18 39  1  0
 18 40  1  0
M  CHG  1  21  -1
M  END
$$$$
=
     RDKit          3D

 28 29  0  0  0  0  0  0  0  0999 V2000
   16.4230   14.8720    3.9930 C   0  0  0  0  0  0  0  0  0  0  0  0
   15.8240   15.5740    5.0480 C   0  0  0  0  0  0  0  0  0  0  0  0
   16.6010   16.1310    6.0670 C   0  0  0  0  0  0  0  0  0  0  0  0
   17.9880   16.0010    6.0330 C   0  0  0  0  0  0  0  0  0  0  0  0
   18.5910   15.3280    4.9680 C   0  0  0  0  0  0  0  0  0  0  0  0
   17.8170   14.7480    3.9620 C   0  0  0  0  0  0  0  0  0  0  0  0
   15.5730   14.2800    2.8940 C   0  0  0  0  0  0  0  0  0  0  0  0
   14.4110   12.4810    3.9000 O   0  0  0  0  0  1  0  0  0  0  0  0
   15.3410   12.7830    3.0960 C   0  0  0  0  0  0  0  0  0  0  0  0
   16.0800   12.0220    2.4040 O   0  0  0  0  0  0  0  0  0  0  0  0
   19.9560   15.1760    4.9070 O   0  0  0  0  0  0  0  0  0  0  0  0
   20.7030   16.3310    4.8250 C   0  0  0  0  0  0  0  0  0  0  0  0
   20.5670   17.2670    3.7960 C   0  0  0  0  0  0  0  0  0  0  0  0
   21.3860   18.3970    3.7710 C   0  0  0  0  0  0  0  0  0  0  0  0
   22.3490   18.5860    4.7630 C   0  0  0  0  0  0  0  0  0  0  0  0
   22.4990   17.6420    5.7790 C   0  0  0  0  0  0  0  0  0  0  0  0
   21.6810   16.5120    5.8060 C   0  0  0  0  0  0  0  0  0  0  0  0
   14.7302   15.6877    5.0740 H   0  0  0  0  0  0  0  0  0  0  0  0
   16.1185   16.6713    6.8948 H   0  0  0  0  0  0  0  0  0  0  0  0
   18.6038   16.4256    6.8395 H   0  0  0  0  0  0  0  0  0  0  0  0
   18.3021   14.1936    3.1451 H   0  0  0  0  0  0  0  0  0  0  0  0
   14.5996   14.7922    2.8824 H   0  0  0  0  0  0  0  0  0  0  0  0
   16.1048   14.4168    1.9409 H   0  0  0  0  0  0  0  0  0  0  0  0
   19.8158   17.1134    3.0072 H   0  0  0  0  0  0  0  0  0  0  0  0
   21.2721   19.1399    2.9678 H   0  0  0  0  0  0  0  0  0  0  0  0
   22.9901   19.4797    4.7438 H   0  0  0  0  0  0  0  0  0  0  0  0
   23.2615   17.7883    6.5582 H   0  0  0  0  0  0  0  0  0  0  0  0
   21.8064   15.7623    6.6011 H   0  0  0  0  0  0  0  0  0  0  0  0
  2  1  2  0
  3  2  1  0
  4  3  2  0
  5  4  1  0
  6  5  2  0
  6  1  1  0
  7  1  1  0
  9  8  1  0
  9  7  1  0
 10  9  2  0
 11  5  1  0
 12 11  1  0
 13 12  2  0
 14 13  1  0
 15 14  2  0
 16 15  1  0
 17 12  1  0
 17 16  2  0
  2 18  1  0
  3 19  1  0
  4 20  1  0
  6 21  1  0
  7 22  1  0
  7 23  1  0
 13 24  1  0
 14 25  1  0
 15 26  1  0
 16 27  1  0
 17 28  1  0
M  CHG  1   8  -1
M  END
$$$$
=
     RDKit          3D

 30 31  0  0  0  0  0  0  0  0999 V2000
   17.9620   16.9600    4.9050 C   0  0  0  0  0  0  0  0  0  0  0  0
   17.1620   17.3900    5.7400 O   0  0  0  0  0  0  0  0  0  0  0  0
   17.7550   15.8880    4.0780 N   0  0  0  0  0  0  0  0  0  0  0  0
   16.6260   15.1130    3.9780 C   0  0  0  0  0  0  0  0  0  0  0  0
   16.5250   14.0660    3.1860 N   0  0  0  0  0  0  0  0  0  0  0  0
   15.2810   13.4650    3.2500 N   0  0  0  0  0  0  0  0  0  0  0  0
   14.4870   14.0860    4.0930 C   0  0  0  0  0  0  0  0  0  0  0  0
   15.1930   15.4510    4.8480 S   0  0  0  0  0  0  0  0  0  0  0  0
   13.0920   13.6870    4.3980 C   0  0  0  0  0  0  0  0  0  0  0  0
   20.3470   17.4710    5.8120 C   0  0  1  0  0  0  0  0  0  0  0  0
   21.5340   18.4280    5.5950 C   0  0  0  0  0  0  0  0  0  0  0  0
   21.9370   18.5930    4.1510 C   0  0  0  0  0  0  0  0  0  0  0  0
   21.1950   18.1620    3.1210 C   0  0  0  0  0  0  0  0  0  0  0  0
   19.8510   17.5100    3.2980 C   0  0  0  0  0  0  0  0  0  0  0  0
   19.2920   17.7000    4.7170 C   0  0  1  0  0  0  0  0  0  0  0  0
   21.5410   15.8460    7.0620 O   0  0  0  0  0  1  0  0  0  0  0  0
   20.9170   16.0550    5.9800 C   0  0  0  0  0  0  0  0  0  0  0  0
   20.7580   15.2810    4.9970 O   0  0  0  0  0  0  0  0  0  0  0  0
   18.5377   15.6335    3.4587 H   0  0  0  0  0  0  0  0  0  0  0  0
   12.9521   13.6470    5.4883 H   0  0  0  0  0  0  0  0  0  0  0  0
   12.3975   14.4225    3.9660 H   0  0  0  0  0  0  0  0  0  0  0  0
   12.8914   12.6955    3.9660 H   0  0  0  0  0  0  0  0  0  0  0  0
   19.7806   17.6596    6.7359 H   0  0  0  0  0  0  0  0  0  0  0  0
   21.2578   19.4162    5.9915 H   0  0  0  0  0  0  0  0  0  0  0  0
   22.3963   17.9865    6.1161 H   0  0  0  0  0  0  0  0  0  0  0  0
   22.8913   19.0940    3.9311 H   0  0  0  0  0  0  0  0  0  0  0  0
   21.5864   18.2909    2.1011 H   0  0  0  0  0  0  0  0  0  0  0  0
   19.1462   17.9517    2.5782 H   0  0  0  0  0  0  0  0  0  0  0  0
   19.9760   16.4305    3.1277 H   0  0  0  0  0  0  0  0  0  0  0  0
   19.0352   18.7623    4.8416 H   0  0  0  0  0  0  0  0  0  0  0  0
  2  1  2  0
  3  1  1  0
  4  3  1  0
  5  4  2  0
  6  5  1  0
  7  6  2  0
  8  7  1  0
  8  4  1  0
  9  7  1  0
 11 10  1  0
 12 11  1  0
 13 12  2  0
 14 13  1  0
 15 14  1  0
 15  1  1  0
 15 10  1  0
 17 16  1  0
 17 10  1  0
 18 17  2  0
  3 19  1  0
  9 20  1  0
  9 21  1  0
  9 22  1  0
 10 23  1  1
 11 24  1  0
 11 25  1  0
 12 26  1  0
 13 27  1  0
 14 28  1  0
 14 29  1  0
 15 30  1  6
M  CHG  1  16  -1
M  END
$$$$
=
     RDKit          3D

 26 27  0  0  0  0  0  0  0  0999 V2000
   18.2600   16.2090    4.2300 C   0  0  0  0  0  0  0  0  0  0  0  0
   17.9560   17.1290    5.2130 C   0  0  0  0  0  0  0  0  0  0  0  0
   16.6770   16.9800    5.6470 O   0  0  0  0  0  0  0  0  0  0  0  0
   16.1470   15.9340    4.9550 C   0  0  0  0  0  0  0  0  0  0  0  0
   17.0840   15.4160    4.0740 C   0  0  0  0  0  0  0  0  0  0  0  0
   16.7130   14.3130    3.2840 C   0  0  0  0  0  0  0  0  0  0  0  0
   15.4130   13.7740    3.3980 C   0  0  0  0  0  0  0  0  0  0  0  0
   15.0570   12.5810    2.5520 C   0  0  0  0  0  0  0  0  0  0  0  0
   14.4860   14.3390    4.3020 C   0  0  0  0  0  0  0  0  0  0  0  0
   14.8520   15.4400    5.1010 C   0  0  0  0  0  0  0  0  0  0  0  0
   13.0980   13.7750    4.4450 C   0  0  0  0  0  0  0  0  0  0  0  0
   19.5450   16.0890    3.4810 C   0  0  0  0  0  0  0  0  0  0  0  0
   20.8920   18.0340    3.4920 O   0  0  0  0  0  1  0  0  0  0  0  0
   19.9760   17.4210    2.8680 C   0  0  0  0  0  0  0  0  0  0  0  0
   19.4050   17.7280    1.7810 O   0  0  0  0  0  0  0  0  0  0  0  0
   18.6579   17.8847    5.5954 H   0  0  0  0  0  0  0  0  0  0  0  0
   17.4334   13.8717    2.5796 H   0  0  0  0  0  0  0  0  0  0  0  0
   14.8036   11.7318    3.2037 H   0  0  0  0  0  0  0  0  0  0  0  0
   14.1930   12.8265    1.9170 H   0  0  0  0  0  0  0  0  0  0  0  0
   15.9143   12.3128    1.9170 H   0  0  0  0  0  0  0  0  0  0  0  0
   14.1441   15.8917    5.8116 H   0  0  0  0  0  0  0  0  0  0  0  0
   12.8511   13.6747    5.5122 H   0  0  0  0  0  0  0  0  0  0  0  0
   12.3761   14.4511    3.9636 H   0  0  0  0  0  0  0  0  0  0  0  0
   13.0523   12.7870    3.9636 H   0  0  0  0  0  0  0  0  0  0  0  0
   20.3286   15.7461    4.1726 H   0  0  0  0  0  0  0  0  0  0  0  0
   19.3954   15.3702    2.6619 H   0  0  0  0  0  0  0  0  0  0  0  0
  2  1  2  0
  3  2  1  0
  4  3  1  0
  5  4  2  0
  5  1  1  0
  6  5  1  0
  7  6  2  0
  8  7  1  0
  9  7  1  0
 10  9  2  0
 10  4  1  0
 11  9  1  0
 12  1  1  0
 14 12  1  0
 14 13  1  0
 15 14  2  0
  2 16  1  0
  6 17  1  0
  8 18  1  0
  8 19  1  0
  8 20  1  0
 10 21  1  0
 11 22  1  0
 11 23  1  0
 11 24  1  0
 12 25  1  0
 12 26  1  0
M  CHG  1  13  -1
M  END
$$$$
=
     RDKit          3D

 22 22  0  0  0  0  0  0  0  0999 V2000
   17.5380   15.5950    5.4170 O   0  0  0  0  0  0  0  0  0  0  0  0
   17.9930   14.9650    4.4640 C   0  0  0  0  0  0  0  0  0  0  0  0
   17.2380   14.5750    3.3820 N   0  0  0  0  0  0  0  0  0  0  0  0
   19.4980   14.7060    4.3250 C   0  0  0  0  0  0  0  0  0  0  0  0
   20.3030   15.8730    4.7040 N   0  0  0  0  0  0  0  0  0  0  0  0
   20.3990   17.0410    3.9870 C   0  0  0  0  0  0  0  0  0  0  0  0
   19.6650   17.4210    2.5350 S   0  0  0  0  0  0  0  0  0  0  0  0
   21.3980   18.2060    4.8390 S   0  0  0  0  0  0  0  0  0  0  0  0
   21.8890   17.0120    6.1010 C   0  0  0  0  0  0  0  0  0  0  0  0
   20.9880   15.8230    5.9080 C   0  0  0  0  0  0  0  0  0  0  0  0
   20.8450   14.9470    6.7570 O   0  0  0  0  0  0  0  0  0  0  0  0
   15.8400   14.1450    3.5460 C   0  0  0  0  0  0  0  0  0  0  0  0
   15.6010   12.8090    2.7790 C   0  0  0  0  0  0  0  0  0  0  0  0
   14.3660   12.5090    2.6640 O   0  0  0  0  0  0  0  0  0  0  0  0
   16.6280   12.1940    2.3890 O   0  0  0  0  0  1  0  0  0  0  0  0
   17.6581   14.5841    2.4416 H   0  0  0  0  0  0  0  0  0  0  0  0
   19.7727   13.8614    4.9739 H   0  0  0  0  0  0  0  0  0  0  0  0
   19.7044   14.4849    3.2674 H   0  0  0  0  0  0  0  0  0  0  0  0
   22.9414   16.7218    5.9658 H   0  0  0  0  0  0  0  0  0  0  0  0
   21.7975   17.4308    7.1140 H   0  0  0  0  0  0  0  0  0  0  0  0
   15.6279   13.9947    4.6148 H   0  0  0  0  0  0  0  0  0  0  0  0
   15.1733   14.9197    3.1393 H   0  0  0  0  0  0  0  0  0  0  0  0
  2  1  2  0
  3  2  1  0
  4  2  1  0
  5  4  1  0
  6  5  1  0
  7  6  2  0
  8  6  1  0
  9  8  1  0
 10  5  1  0
 10  9  1  0
 11 10  2  0
 12  3  1  0
 13 12  1  0
 14 13  2  0
 15 13  1  0
  3 16  1  0
  4 17  1  0
  4 18  1  0
  9 19  1  0
  9 20  1  0
 12 21  1  0
 12 22  1  0
M  CHG  1  15  -1
M  END
$$$$
=
     RDKit          3D

 21 22  0  0  0  0  0  0  0  0999 V2000
   19.1220   15.6490    5.1080 C   0  0  1  0  0  0  0  0  0  0  0  0
   19.7410   14.6170    6.0710 C   0  0  0  0  0  0  0  0  0  0  0  0
   20.8000   15.3610    6.8920 C   0  0  0  0  0  0  0  0  0  0  0  0
   21.2510   16.3990    5.9160 C   0  0  0  0  0  0  0  0  0  0  0  0
   20.3080   16.5620    4.8920 C   0  0  0  0  0  0  0  0  0  0  0  0
   20.4980   17.5140    3.8990 C   0  0  0  0  0  0  0  0  0  0  0  0
   21.6590   18.2890    3.9290 C   0  0  0  0  0  0  0  0  0  0  0  0
   22.5930   18.1110    4.9530 C   0  0  0  0  0  0  0  0  0  0  0  0
   22.4010   17.1720    5.9620 C   0  0  0  0  0  0  0  0  0  0  0  0
   23.6980   18.8720    4.9710 F   0  0  0  0  0  0  0  0  0  0  0  0
   17.3270   15.4750    3.5730 O   0  0  0  0  0  1  0  0  0  0  0  0
   18.5050   15.0770    3.8240 C   0  0  0  0  0  0  0  0  0  0  0  0
   19.2050   14.2470    3.1780 O   0  0  0  0  0  0  0  0  0  0  0  0
   18.2290   16.1484    5.5118 H   0  0  0  0  0  0  0  0  0  0  0  0
   18.9664   14.2057    6.7350 H   0  0  0  0  0  0  0  0  0  0  0  0
   20.1870   13.7772    5.5179 H   0  0  0  0  0  0  0  0  0  0  0  0
   20.3638   15.8176    7.7927 H   0  0  0  0  0  0  0  0  0  0  0  0
   21.6081   14.7190    7.2725 H   0  0  0  0  0  0  0  0  0  0  0  0
   19.7494   17.6546    3.1053 H   0  0  0  0  0  0  0  0  0  0  0  0
   21.8386   19.0403    3.1459 H   0  0  0  0  0  0  0  0  0  0  0  0
   23.1375   17.0472    6.7695 H   0  0  0  0  0  0  0  0  0  0  0  0
  2  1  1  0
  3  2  1  0
  4  3  1  0
  5  1  1  0
  5  4  2  0
  6  5  1  0
  7  6  2  0
  8  7  1  0
  9  4  1  0
  9  8  2  0
 10  8  1  0
 12 11  1  0
 12  1  1  0
 13 12  2  0
  1 14  1  1
  2 15  1  0
  2 16  1  0
  3 17  1  0
  3 18  1  0
  6 19  1  0
  7 20  1  0
  9 21  1  0
M  CHG  1  11  -1
M  END
$$$$
=
     RDKit          3D

 44 46  0  0  0  0  0  0  0  0999 V2000
   15.8220   13.6380    2.5230 O   0  0  0  0  0  0  0  0  0  0  0  0
   15.9030   14.3810    3.5020 C   0  0  0  0  0  0  0  0  0  0  0  0
   17.0340   14.4390    4.3100 N   0  0  0  0  0  0  0  0  0  0  0  0
   18.1610   13.5610    4.0260 C   0  0  0  0  0  0  0  0  0  0  0  0
   19.5050   14.2900    4.0940 C   0  0  0  0  0  0  0  0  0  0  0  0
   19.5710   15.3850    5.1990 C   0  0  0  0  0  0  0  0  0  0  0  0
   18.4550   15.1400    6.2350 C   0  0  0  0  0  0  0  0  0  0  0  0
   17.0750   15.1540    5.5850 C   0  0  0  0  0  0  0  0  0  0  0  0
   19.4720   16.7670    4.6980 N   0  0  0  0  0  0  0  0  0  0  0  0
   19.5920   17.9270    5.4220 C   0  0  0  0  0  0  0  0  0  0  0  0
   19.6110   18.9950    4.6540 N   0  0  0  0  0  0  0  0  0  0  0  0
   19.4850   18.5160    3.3790 C   0  0  0  0  0  0  0  0  0  0  0  0
   19.4250   17.1440    3.3760 C   0  0  0  0  0  0  0  0  0  0  0  0
   20.9790   15.2330    5.8450 C   0  0  0  0  0  0  0  0  0  0  0  0
   20.9930   14.9830    7.0860 O   0  0  0  0  0  0  0  0  0  0  0  0
   21.9660   15.3560    5.0630 O   0  0  0  0  0  1  0  0  0  0  0  0
   14.7540   15.3050    3.8890 C   0  0  0  0  0  0  0  0  0  0  0  0
   13.6910   14.5830    4.7210 C   0  0  0  0  0  0  0  0  0  0  0  0
   12.2620   14.9270    4.2940 C   0  0  0  0  0  0  0  0  0  0  0  0
   11.5880   13.8120    3.5480 C   0  0  0  0  0  0  0  0  0  0  0  0
   12.1750   12.8010    2.8110 C   0  0  0  0  0  0  0  0  0  0  0  0
   11.2140   11.9130    2.2450 C   0  0  0  0  0  0  0  0  0  0  0  0
    9.9260   12.2820    2.5610 C   0  0  0  0  0  0  0  0  0  0  0  0
    9.8800   13.6900    3.5290 S   0  0  0  0  0  0  0  0  0  0  0  0
   18.1655   12.7438    4.7623 H   0  0  0  0  0  0  0  0  0  0  0  0
   18.0385   13.1817    3.0007 H   0  0  0  0  0  0  0  0  0  0  0  0
   20.2922   13.5481    4.2936 H   0  0  0  0  0  0  0  0  0  0  0  0
   19.6419   14.8001    3.1291 H   0  0  0  0  0  0  0  0  0  0  0  0
   18.6166   14.1608    6.7094 H   0  0  0  0  0  0  0  0  0  0  0  0
   18.4932   15.9478    6.9806 H   0  0  0  0  0  0  0  0  0  0  0  0
   16.7812   16.1994    5.4097 H   0  0  0  0  0  0  0  0  0  0  0  0
   16.3843   14.6415    6.2707 H   0  0  0  0  0  0  0  0  0  0  0  0
   19.6641   17.9599    6.5191 H   0  0  0  0  0  0  0  0  0  0  0  0
   19.4381   19.1449    2.4777 H   0  0  0  0  0  0  0  0  0  0  0  0
   19.3541   16.4839    2.4989 H   0  0  0  0  0  0  0  0  0  0  0  0
   15.1555   16.1436    4.4768 H   0  0  0  0  0  0  0  0  0  0  0  0
   14.2772   15.6594    2.9632 H   0  0  0  0  0  0  0  0  0  0  0  0
   13.8378   13.4983    4.6123 H   0  0  0  0  0  0  0  0  0  0  0  0
   13.8107   14.9110    5.7641 H   0  0  0  0  0  0  0  0  0  0  0  0
   11.6720   15.1532    5.1944 H   0  0  0  0  0  0  0  0  0  0  0  0
   12.3205   15.7896    3.6139 H   0  0  0  0  0  0  0  0  0  0  0  0
   13.2614   12.6936    2.6763 H   0  0  0  0  0  0  0  0  0  0  0  0
   11.4709   11.0381    1.6297 H   0  0  0  0  0  0  0  0  0  0  0  0
    9.0312   11.7348    2.2294 H   0  0  0  0  0  0  0  0  0  0  0  0
  2  1  2  0
  3  2  1  0
  4  3  1  0
  5  4  1  0
  6  5  1  0
  7  6  1  0
  8  3  1  0
  8  7  1  0
  9  6  1  0
 10  9  1  0
 11 10  2  0
 12 11  1  0
 13 12  2  0
 13  9  1  0
 14  6  1  0
 15 14  2  0
 16 14  1  0
 17  2  1  0
 18 17  1  0
 19 18  1  0
 20 19  1  0
 21 20  2  0
 22 21  1  0
 23 22  2  0
 24 23  1  0
 24 20  1  0
  4 25  1  0
  4 26  1  0
  5 27  1  0
  5 28  1  0
  7 29  1  0
  7 30  1  0
  8 31  1  0
  8 32  1  0
 10 33  1  0
 12 34  1  0
 13 35  1  0
 17 36  1  0
 17 37  1  0
 18 38  1  0
 18 39  1  0
 19 40  1  0
 19 41  1  0
 21 42  1  0
 22 43  1  0
 23 44  1  0
M  CHG  1  16  -1
M  END
$$$$
=
     RDKit          3D

 77 80  0  0  0  0  0  0  0  0999 V2000
   21.8840   25.2640   15.1620 C   0  0  0  0  0  0  0  0  0  0  0  0
   24.9280   24.0350   13.7830 C   0  0  0  0  0  0  0  0  0  0  0  0
   24.4920   24.5550   12.6260 C   0  0  0  0  0  0  0  0  0  0  0  0
   25.1410   24.5010   11.2890 C   0  0  0  0  0  0  0  0  0  0  0  0
   23.1680   25.2450   12.8480 C   0  0  1  0  0  0  0  0  0  0  0  0
   23.0810   24.9100   14.3320 C   0  0  0  0  0  0  0  0  0  0  0  0
   24.0870   24.2520   14.8350 N   0  0  0  0  0  0  0  0  0  0  0  0
   29.2570   25.3420   14.4890 C   0  0  0  0  0  0  0  0  0  0  0  0
   27.9150   25.3300   14.3080 C   0  0  0  0  0  0  0  0  0  0  0  0
   27.0170   26.5210   14.2740 C   0  0  0  0  0  0  0  0  0  0  0  0
   27.4200   23.9660   14.2000 C   0  0  0  0  0  0  0  0  0  0  0  0
   26.2080   23.4210   14.0170 C   0  0  0  0  0  0  0  0  0  0  0  0
   28.5230   23.1750   14.3530 N   0  0  0  0  0  0  0  0  0  0  0  0
   29.6720   23.9060   14.5120 C   0  0  0  0  0  0  0  0  0  0  0  0
   30.7920   23.4440   14.6480 O   0  0  0  0  0  0  0  0  0  0  0  0
   30.4210   27.1320   15.7650 C   0  0  0  0  0  0  0  0  0  0  0  0
   30.1300   26.4840   14.6290 C   0  0  0  0  0  0  0  0  0  0  0  0
   23.1860   26.7550   12.5940 C   0  0  0  0  0  0  0  0  0  0  0  0
   22.0740   27.2160   11.6510 C   0  0  0  0  0  0  0  0  0  0  0  0
   21.1250   28.2640   12.2400 C   0  0  0  0  0  0  0  0  0  0  0  0
   19.9720   28.3310   11.7330 O   0  0  0  0  0  0  0  0  0  0  0  0
   21.6260   28.9480   13.1790 O   0  0  0  0  0  1  0  0  0  0  0  0
   20.6050   24.7420   14.5790 C   0  0  0  0  0  0  0  0  0  0  0  0
   19.8220   25.5040   13.8750 N   0  0  0  0  0  0  0  0  0  0  0  0
   18.8200   24.6900   13.4380 C   0  0  0  0  0  0  0  0  0  0  0  0
   18.9510   23.4210   13.8600 C   0  0  0  0  0  0  0  0  0  0  0  0
   20.1740   23.2920   14.7320 C   0  0  2  0  0  0  0  0  0  0  0  0
   18.1110   22.2360   13.5300 C   0  0  0  0  0  0  0  0  0  0  0  0
   17.7420   25.2120   12.6320 C   0  0  0  0  0  0  0  0  0  0  0  0
   17.5860   25.4370   11.3160 C   0  0  0  0  0  0  0  0  0  0  0  0
   16.3930   25.9320   10.8560 N   0  0  0  0  0  0  0  0  0  0  0  0
   16.3690   26.0580    9.4960 C   0  0  0  0  0  0  0  0  0  0  0  0
   15.4510   26.4590    8.8070 O   0  0  0  0  0  0  0  0  0  0  0  0
   17.6990   25.6180    9.0250 C   0  0  0  0  0  0  0  0  0  0  0  0
   18.4080   25.2450   10.1170 C   0  0  0  0  0  0  0  0  0  0  0  0
   18.0420   25.7120    7.5850 C   0  0  0  0  0  0  0  0  0  0  0  0
   19.7920   24.8350   10.0260 C   0  0  0  0  0  0  0  0  0  0  0  0
   20.2580   23.6190   10.3410 C   0  0  0  0  0  0  0  0  0  0  0  0
   19.9260   22.9230   16.2010 C   0  0  0  0  0  0  0  0  0  0  0  0
   20.2880   21.4760   16.5430 C   0  0  0  0  0  0  0  0  0  0  0  0
   21.5800   20.9250   15.9410 C   0  0  0  0  0  0  0  0  0  0  0  0
   22.6350   21.4740   16.3710 O   0  0  0  0  0  0  0  0  0  0  0  0
   21.4470   19.9880   15.1060 O   0  0  0  0  0  1  0  0  0  0  0  0
   22.0133   24.8369   16.1674 H   0  0  0  0  0  0  0  0  0  0  0  0
   21.8128   26.3612   15.1942 H   0  0  0  0  0  0  0  0  0  0  0  0
   26.2302   24.4104   11.4135 H   0  0  0  0  0  0  0  0  0  0  0  0
   24.7620   23.6313   10.7323 H   0  0  0  0  0  0  0  0  0  0  0  0
   24.9109   25.4214   10.7323 H   0  0  0  0  0  0  0  0  0  0  0  0
   22.3410   24.9377   12.1909 H   0  0  0  0  0  0  0  0  0  0  0  0
   26.7821   26.8326   15.3025 H   0  0  0  0  0  0  0  0  0  0  0  0
   27.5206   27.3450   13.7472 H   0  0  0  0  0  0  0  0  0  0  0  0
   26.0863   26.2635   13.7472 H   0  0  0  0  0  0  0  0  0  0  0  0
   26.1897   22.3217   14.0516 H   0  0  0  0  0  0  0  0  0  0  0  0
   28.4948   22.1454   14.3493 H   0  0  0  0  0  0  0  0  0  0  0  0
   31.1040   27.9941   15.7470 H   0  0  0  0  0  0  0  0  0  0  0  0
   29.9769   26.8019   16.7157 H   0  0  0  0  0  0  0  0  0  0  0  0
   30.6039   26.8597   13.7101 H   0  0  0  0  0  0  0  0  0  0  0  0
   23.0666   27.2737   13.5566 H   0  0  0  0  0  0  0  0  0  0  0  0
   24.1457   26.9962   12.1135 H   0  0  0  0  0  0  0  0  0  0  0  0
   22.5428   27.6452   10.7532 H   0  0  0  0  0  0  0  0  0  0  0  0
   21.4607   26.3280   11.4384 H   0  0  0  0  0  0  0  0  0  0  0  0
   20.8689   22.4867   14.4517 H   0  0  0  0  0  0  0  0  0  0  0  0
   17.7714   21.7569   14.4601 H   0  0  0  0  0  0  0  0  0  0  0  0
   17.2379   22.5574   12.9431 H   0  0  0  0  0  0  0  0  0  0  0  0
   18.7034   21.5186   12.9431 H   0  0  0  0  0  0  0  0  0  0  0  0
   16.8556   25.4849   13.2234 H   0  0  0  0  0  0  0  0  0  0  0  0
   15.6028   26.1811   11.4678 H   0  0  0  0  0  0  0  0  0  0  0  0
   19.0978   26.0014    7.4777 H   0  0  0  0  0  0  0  0  0  0  0  0
   17.8787   24.7360    7.1047 H   0  0  0  0  0  0  0  0  0  0  0  0
   17.4039   26.4684    7.1047 H   0  0  0  0  0  0  0  0  0  0  0  0
   20.5190   25.5799    9.6703 H   0  0  0  0  0  0  0  0  0  0  0  0
   21.3307   23.3978   10.2395 H   0  0  0  0  0  0  0  0  0  0  0  0
   19.5679   22.8418   10.7011 H   0  0  0  0  0  0  0  0  0  0  0  0
   20.5300   23.5905   16.8332 H   0  0  0  0  0  0  0  0  0  0  0  0
   18.8468   23.0350   16.3821 H   0  0  0  0  0  0  0  0  0  0  0  0
   20.3747   21.4050   17.6373 H   0  0  0  0  0  0  0  0  0  0  0  0
   19.4844   20.8678   16.1021 H   0  0  0  0  0  0  0  0  0  0  0  0
  3  2  2  0
  4  3  1  0
  5  3  1  0
  6  5  1  0
  6  1  1  0
  7  6  2  0
  7  2  1  0
  9  8  2  0
 10  9  1  0
 11  9  1  0
 12  2  1  0
 12 11  2  0
 13 11  1  0
 14 13  1  0
 14  8  1  0
 15 14  2  0
 17 16  2  3
 17  8  1  0
 18  5  1  0
 19 18  1  0
 20 19  1  0
 21 20  2  0
 22 20  1  0
 23  1  1  0
 24 23  2  0
 25 24  1  0
 26 25  2  0
 27 26  1  0
 27 23  1  0
 28 26  1  0
 29 25  1  0
 30 29  2  0
 31 30  1  0
 32 31  1  0
 33 32  2  0
 34 32  1  0
 35 34  2  0
 35 30  1  0
 36 34  1  0
 37 35  1  0
 38 37  2  3
 39 27  1  0
 40 39  1  0
 41 40  1  0
 42 41  2  0
 43 41  1  0
  1 44  1  0
  1 45  1  0
  4 46  1  0
  4 47  1  0
  4 48  1  0
  5 49  1  6
 10 50  1  0
 10 51  1  0
 10 52  1  0
 12 53  1  0
 13 54  1  0
 16 55  1  0
 16 56  1  0
 17 57  1  0
 18 58  1  0
 18 59  1  0
 19 60  1  0
 19 61  1  0
 27 62  1  6
 28 63  1  0
 28 64  1  0
 28 65  1  0
 29 66  1  0
 31 67  1  0
 36 68  1  0
 36 69  1  0
 36 70  1  0
 37 71  1  0
 38 72  1  0
 38 73  1  0
 39 74  1  0
 39 75  1  0
 40 76  1  0
 40 77  1  0
M  CHG  2  22  -1  43  -1
M  END
$$$$
=
     RDKit          3D

 52 56  0  0  0  0  0  0  0  0999 V2000
   15.1570   11.9460    3.5760 O   0  0  0  0  0  0  0  0  0  0  0  0
   14.5640   12.9820    3.3100 C   0  0  0  0  0  0  0  0  0  0  0  0
   14.9830   14.2340    3.5950 N   0  0  0  0  0  0  0  0  0  0  0  0
   16.1530   14.5820    4.4270 C   0  0  2  0  0  0  0  0  0  0  0  0
   15.7920   15.6890    5.4730 C   0  0  0  0  0  0  0  0  0  0  0  0
   15.7870   15.3410    6.6870 O   0  0  0  0  0  0  0  0  0  0  0  0
   15.5340   16.8240    4.9620 O   0  0  0  0  0  1  0  0  0  0  0  0
   17.3200   15.0920    3.5660 C   0  0  0  0  0  0  0  0  0  0  0  0
   18.5530   15.4490    4.3740 C   0  0  0  0  0  0  0  0  0  0  0  0
   19.0490   14.5450    5.3410 C   0  0  0  0  0  0  0  0  0  0  0  0
   20.1860   14.8480    6.0960 C   0  0  0  0  0  0  0  0  0  0  0  0
   20.8070   16.0550    5.8600 C   0  0  0  0  0  0  0  0  0  0  0  0
   20.3380   16.9390    4.9160 C   0  0  0  0  0  0  0  0  0  0  0  0
   19.2200   16.6650    4.1560 C   0  0  0  0  0  0  0  0  0  0  0  0
   21.0960   18.0660    4.8400 O   0  0  0  0  0  0  0  0  0  0  0  0
   22.1070   17.7760    5.8230 C   0  0  0  0  0  0  0  0  0  0  0  0
   21.9190   16.5140    6.4960 O   0  0  0  0  0  0  0  0  0  0  0  0
   13.3700   13.0370    2.6670 O   0  0  0  0  0  0  0  0  0  0  0  0
   12.2930   12.4290    3.3920 C   0  0  0  0  0  0  0  0  0  0  0  0
   10.9700   13.1690    3.1630 C   0  0  0  0  0  0  0  0  0  0  0  0
   10.1760   13.4540    4.4330 C   0  0  0  0  0  0  0  0  0  0  0  0
   10.5860   14.1190    5.5780 C   0  0  0  0  0  0  0  0  0  0  0  0
    9.6680   14.2650    6.6200 C   0  0  0  0  0  0  0  0  0  0  0  0
    8.3650   13.7540    6.5050 C   0  0  0  0  0  0  0  0  0  0  0  0
    7.9560   13.0880    5.3450 C   0  0  0  0  0  0  0  0  0  0  0  0
    8.8660   12.9420    4.3110 C   0  0  0  0  0  0  0  0  0  0  0  0
    8.7300   12.2990    3.0200 C   0  0  0  0  0  0  0  0  0  0  0  0
    9.9540   12.4040    2.3230 C   0  0  0  0  0  0  0  0  0  0  0  0
   10.1090   11.8650    1.0540 C   0  0  0  0  0  0  0  0  0  0  0  0
    9.0220   11.2050    0.4820 C   0  0  0  0  0  0  0  0  0  0  0  0
    7.8030   11.0950    1.1720 C   0  0  0  0  0  0  0  0  0  0  0  0
    7.6510   11.6440    2.4500 C   0  0  0  0  0  0  0  0  0  0  0  0
   14.4397   15.0137    3.1978 H   0  0  0  0  0  0  0  0  0  0  0  0
   16.4549   13.6616    4.9483 H   0  0  0  0  0  0  0  0  0  0  0  0
   17.5908   14.3065    2.8451 H   0  0  0  0  0  0  0  0  0  0  0  0
   16.9793   16.0124    3.0692 H   0  0  0  0  0  0  0  0  0  0  0  0
   18.5319   13.5876    5.5021 H   0  0  0  0  0  0  0  0  0  0  0  0
   20.5711   14.1475    6.8517 H   0  0  0  0  0  0  0  0  0  0  0  0
   18.8611   17.3792    3.4003 H   0  0  0  0  0  0  0  0  0  0  0  0
   23.0851   17.7586    5.3200 H   0  0  0  0  0  0  0  0  0  0  0  0
   22.0425   18.5614    6.5905 H   0  0  0  0  0  0  0  0  0  0  0  0
   12.1815   11.3868    3.0583 H   0  0  0  0  0  0  0  0  0  0  0  0
   12.5315   12.4745    4.4649 H   0  0  0  0  0  0  0  0  0  0  0  0
   11.3405   14.0801    2.6705 H   0  0  0  0  0  0  0  0  0  0  0  0
   11.6065   14.5207    5.6634 H   0  0  0  0  0  0  0  0  0  0  0  0
    9.9687   14.7859    7.5410 H   0  0  0  0  0  0  0  0  0  0  0  0
    7.6571   13.8791    7.3376 H   0  0  0  0  0  0  0  0  0  0  0  0
    6.9347   12.6892    5.2559 H   0  0  0  0  0  0  0  0  0  0  0  0
   11.0630   11.9558    0.5140 H   0  0  0  0  0  0  0  0  0  0  0  0
    9.1200   10.7652   -0.5215 H   0  0  0  0  0  0  0  0  0  0  0  0
    6.9579   10.5709    0.7018 H   0  0  0  0  0  0  0  0  0  0  0  0
    6.6964   11.5574    2.9896 H   0  0  0  0  0  0  0  0  0  0  0  0
  2  1  2  0
  3  2  1  0
  4  3  1  0
  5  4  1  0
  6  5  2  0
  7  5  1  0
  8  4  1  0
  9  8  1  0
 10  9  2  0
 11 10  1  0
 12 11  2  0
 13 12  1  0
 14  9  1  0
 14 13  2  0
 15 13  1  0
 16 15  1  0
 17 12  1  0
 17 16  1  0
 18  2  1  0
 19 18  1  0
 20 19  1  0
 21 20  1  0
 22 21  2  0
 23 22  1  0
 24 23  2  0
 25 24  1  0
 26 25  2  0
 26 21  1  0
 27 26  1  0
 28 27  2  0
 28 20  1  0
 29 28  1  0
 30 29  2  0
 31 30  1  0
 32 31  2  0
 32 27  1  0
  3 33  1  0
  4 34  1  1
  8 35  1  0
  8 36  1  0
 10 37  1  0
 11 38  1  0
 14 39  1  0
 16 40  1  0
 16 41  1  0
 19 42  1  0
 19 43  1  0
 20 44  1  0
 22 45  1  0
 23 46  1  0
 24 47  1  0
 25 48  1  0
 29 49  1  0
 30 50  1  0
 31 51  1  0
 32 52  1  0
M  CHG  1   7  -1
M  END
$$$$
=
     RDKit          3D

 30 31  0  0  0  0  0  0  0  0999 V2000
   18.8680   13.3430    3.1830 O   0  0  0  0  0  0  0  0  0  0  0  0
   18.2380   14.3120    3.6010 C   0  0  0  0  0  0  0  0  0  0  0  0
   16.8610   14.3590    3.5460 N   0  0  0  0  0  0  0  0  0  0  0  0
   18.8790   15.4990    4.1900 C   0  0  0  0  0  0  0  0  0  0  0  0
   20.2140   15.5530    4.3530 N   0  0  0  0  0  0  0  0  0  0  0  0
   20.4920   16.7780    4.9200 O   0  0  0  0  0  0  0  0  0  0  0  0
   19.3380   17.4660    5.1050 C   0  0  0  0  0  0  0  0  0  0  0  0
   18.2870   16.7050    4.6610 C   0  0  0  0  0  0  0  0  0  0  0  0
   19.4590   18.8040    5.7070 C   0  0  0  0  0  0  0  0  0  0  0  0
   16.0880   13.2750    2.9880 C   0  0  0  0  0  0  0  0  0  0  0  0
   14.6480   13.4230    3.3850 C   0  0  0  0  0  0  0  0  0  0  0  0
   13.6780   12.5470    2.8780 C   0  0  0  0  0  0  0  0  0  0  0  0
   12.3270   12.7400    3.1760 C   0  0  0  0  0  0  0  0  0  0  0  0
   11.9090   13.8120    3.9800 C   0  0  0  0  0  0  0  0  0  0  0  0
   12.8870   14.6800    4.4870 C   0  0  0  0  0  0  0  0  0  0  0  0
   14.2400   14.4920    4.1920 C   0  0  0  0  0  0  0  0  0  0  0  0
   10.4380   14.0330    4.2800 C   0  0  0  0  0  0  0  0  0  0  0  0
   10.0320   13.7130    5.4410 O   0  0  0  0  0  0  0  0  0  0  0  0
    9.7270   14.5320    3.3520 O   0  0  0  0  0  1  0  0  0  0  0  0
   16.3718   15.1882    3.9122 H   0  0  0  0  0  0  0  0  0  0  0  0
   17.2192   16.9690    4.6674 H   0  0  0  0  0  0  0  0  0  0  0  0
   19.4509   18.7149    6.8034 H   0  0  0  0  0  0  0  0  0  0  0  0
   20.4027   19.2675    5.3837 H   0  0  0  0  0  0  0  0  0  0  0  0
   18.6137   19.4293    5.3837 H   0  0  0  0  0  0  0  0  0  0  0  0
   16.1687   13.2953    1.8912 H   0  0  0  0  0  0  0  0  0  0  0  0
   16.4743   12.3183    3.3695 H   0  0  0  0  0  0  0  0  0  0  0  0
   13.9825   11.7028    2.2419 H   0  0  0  0  0  0  0  0  0  0  0  0
   11.5788   12.0408    2.7742 H   0  0  0  0  0  0  0  0  0  0  0  0
   12.5843   15.5220    5.1269 H   0  0  0  0  0  0  0  0  0  0  0  0
   14.9893   15.1884    4.5964 H   0  0  0  0  0  0  0  0  0  0  0  0
  2  1  2  0
  3  2  1  0
  4  2  1  0
  5  4  2  0
  6  5  1  0
  7  6  1  0
  8  4  1  0
  8  7  2  0
  9  7  1  0
 10  3  1  0
 11 10  1  0
 12 11  2  0
 13 12  1  0
 14 13  2  0
 15 14  1  0
 16 15  2  0
 16 11  1  0
 17 14  1  0
 18 17  2  0
 19 17  1  0
  3 20  1  0
  8 21  1  0
  9 22  1  0
  9 23  1  0
  9 24  1  0
 10 25  1  0
 10 26  1  0
 12 27  1  0
 13 28  1  0
 15 29  1  0
 16 30  1  0
M  CHG  1  19  -1
M  END
$$$$
=
     RDKit          3D

 24 23  0  0  0  0  0  0  0  0999 V2000
   18.1960   16.3920    5.0670 C   0  0  0  0  0  0  0  0  0  0  0  0
   18.5670   17.2990    4.3190 O   0  0  0  0  0  0  0  0  0  0  0  0
   17.0930   16.6480    6.0800 C   0  0  0  0  0  0  0  0  0  0  0  0
   15.9540   15.6360    5.9910 C   0  0  0  0  0  0  0  0  0  0  0  0
   14.5190   14.4510    4.2910 C   0  0  0  0  0  0  0  0  0  0  0  0
   15.1450   15.7760    4.7000 C   0  0  0  0  0  0  0  0  0  0  0  0
   18.7590   14.9850    5.0190 C   0  0  0  0  0  0  0  0  0  0  0  0
   19.6410   14.6490    6.2100 C   0  0  0  0  0  0  0  0  0  0  0  0
   20.9920   15.3610    6.1550 C   0  0  0  0  0  0  0  0  0  0  0  0
   21.3920   15.8090    7.2660 O   0  0  0  0  0  0  0  0  0  0  0  0
   21.5520   15.4150    5.0250 O   0  0  0  0  0  1  0  0  0  0  0  0
   17.5265   16.5997    7.0898 H   0  0  0  0  0  0  0  0  0  0  0  0
   16.6696   17.6395    5.8615 H   0  0  0  0  0  0  0  0  0  0  0  0
   16.3789   14.6222    6.0328 H   0  0  0  0  0  0  0  0  0  0  0  0
   15.2730   15.8244    6.8341 H   0  0  0  0  0  0  0  0  0  0  0  0
   14.2490   13.8796    5.1913 H   0  0  0  0  0  0  0  0  0  0  0  0
   13.6156   14.6414    3.6930 H   0  0  0  0  0  0  0  0  0  0  0  0
   15.2398   13.8740    3.6930 H   0  0  0  0  0  0  0  0  0  0  0  0
   15.8115   16.1205    3.8955 H   0  0  0  0  0  0  0  0  0  0  0  0
   14.3369   16.5015    4.8747 H   0  0  0  0  0  0  0  0  0  0  0  0
   17.9200   14.2740    4.9944 H   0  0  0  0  0  0  0  0  0  0  0  0
   19.3874   14.9163    4.1188 H   0  0  0  0  0  0  0  0  0  0  0  0
   19.1204   14.9502    7.1310 H   0  0  0  0  0  0  0  0  0  0  0  0
   19.8322   13.5659    6.1902 H   0  0  0  0  0  0  0  0  0  0  0  0
  2  1  2  0
  3  1  1  0
  4  3  1  0
  6  5  1  0
  6  4  1  0
  7  1  1  0
  8  7  1  0
  9  8  1  0
 10  9  2  0
 11  9  1  0
  3 12  1  0
  3 13  1  0
  4 14  1  0
  4 15  1  0
  5 16  1  0
  5 17  1  0
  5 18  1  0
  6 19  1  0
  6 20  1  0
  7 21  1  0
  7 22  1  0
  8 23  1  0
  8 24  1  0
M  CHG  1  11  -1
M  END
$$$$
=
     RDKit          3D

 35 36  0  0  0  0  0  0  0  0999 V2000
   16.7440   15.3480    4.0750 C   0  0  0  0  0  0  0  0  0  0  0  0
   17.3280   15.4340    5.2280 N   0  0  0  0  0  0  0  0  0  0  0  0
   12.9410   13.4360    3.6110 C   0  0  0  0  0  0  0  0  0  0  0  0
   13.0550   14.6580    4.2810 C   0  0  0  0  0  0  0  0  0  0  0  0
   14.2980   15.2780    4.4350 C   0  0  0  0  0  0  0  0  0  0  0  0
   15.4400   14.6710    3.9090 C   0  0  0  0  0  0  0  0  0  0  0  0
   15.3360   13.4540    3.2320 C   0  0  0  0  0  0  0  0  0  0  0  0
   14.0860   12.8400    3.0820 C   0  0  0  0  0  0  0  0  0  0  0  0
   11.6660   12.9490    3.5410 O   0  0  0  0  0  0  0  0  0  0  0  0
   10.5900   13.7930    3.9960 C   0  0  0  0  0  0  0  0  0  0  0  0
    9.2120   12.6270    2.4350 O   0  0  0  0  0  1  0  0  0  0  0  0
    9.3480   13.7010    3.0890 C   0  0  0  0  0  0  0  0  0  0  0  0
    8.6290   14.7450    3.0660 O   0  0  0  0  0  0  0  0  0  0  0  0
   18.5200   16.1010    5.3210 N   0  0  0  0  0  0  0  0  0  0  0  0
   19.6730   15.8390    4.5900 C   0  0  0  0  0  0  0  0  0  0  0  0
   19.8330   14.8970    3.8180 O   0  0  0  0  0  0  0  0  0  0  0  0
   20.8020   16.8030    4.7630 C   0  0  0  0  0  0  0  0  0  0  0  0
   21.0020   17.7810    3.7740 C   0  0  0  0  0  0  0  0  0  0  0  0
   22.0440   18.7060    3.8840 C   0  0  0  0  0  0  0  0  0  0  0  0
   22.8990   18.6660    4.9830 C   0  0  0  0  0  0  0  0  0  0  0  0
   22.7100   17.7030    5.9720 C   0  0  0  0  0  0  0  0  0  0  0  0
   21.6680   16.7820    5.8570 C   0  0  0  0  0  0  0  0  0  0  0  0
   21.5240   15.8790    6.8400 F   0  0  0  0  0  0  0  0  0  0  0  0
   17.2320   15.7912    3.1944 H   0  0  0  0  0  0  0  0  0  0  0  0
   12.1545   15.1376    4.6923 H   0  0  0  0  0  0  0  0  0  0  0  0
   14.3761   16.2376    4.9670 H   0  0  0  0  0  0  0  0  0  0  0  0
   16.2361   12.9774    2.8164 H   0  0  0  0  0  0  0  0  0  0  0  0
   14.0068   11.8835    2.5446 H   0  0  0  0  0  0  0  0  0  0  0  0
   10.3074   13.4872    5.0141 H   0  0  0  0  0  0  0  0  0  0  0  0
   10.9465   14.8333    3.9721 H   0  0  0  0  0  0  0  0  0  0  0  0
   18.5672   16.8739    6.0002 H   0  0  0  0  0  0  0  0  0  0  0  0
   20.3308   17.8190    2.9033 H   0  0  0  0  0  0  0  0  0  0  0  0
   22.1890   19.4661    3.1022 H   0  0  0  0  0  0  0  0  0  0  0  0
   23.7206   19.3923    5.0697 H   0  0  0  0  0  0  0  0  0  0  0  0
   23.3815   17.6688    6.8426 H   0  0  0  0  0  0  0  0  0  0  0  0
  2  1  2  0
  4  3  2  0
  5  4  1  0
  6  5  2  0
  6  1  1  0
  7  6  1  0
  8  7  2  0
  8  3  1  0
  9  3  1  0
 10  9  1  0
 12 11  1  0
 12 10  1  0
 13 12  2  0
 14  2  1  0
 15 14  1  0
 16 15  2  0
 17 15  1  0
 18 17  2  0
 19 18  1  0
 20 19  2  0
 21 20  1  0
 22 17  1  0
 22 21  2  0
 23 22  1  0
  1 24  1  0
  4 25  1  0
  5 26  1  0
  7 27  1  0
  8 28  1  0
 10 29  1  0
 10 30  1  0
 14 31  1  0
 18 32  1  0
 19 33  1  0
 20 34  1  0
 21 35  1  0
M  CHG  1  11  -1
M  END
$$$$
=
     RDKit          3D

 23 24  0  0  0  0  0  0  0  0999 V2000
   19.2880   15.5470    4.6350 C   0  0  0  0  0  0  0  0  0  0  0  0
   18.3370   16.4410    5.1550 C   0  0  0  0  0  0  0  0  0  0  0  0
   16.9610   16.2370    4.9960 C   0  0  0  0  0  0  0  0  0  0  0  0
   16.5770   15.1020    4.2820 C   0  0  0  0  0  0  0  0  0  0  0  0
   17.4810   14.1980    3.7390 C   0  0  0  0  0  0  0  0  0  0  0  0
   18.8560   14.4160    3.9150 C   0  0  0  0  0  0  0  0  0  0  0  0
   16.8200   13.1850    3.0780 N   0  0  0  0  0  0  0  0  0  0  0  0
   15.5380   13.4440    3.2240 C   0  0  0  0  0  0  0  0  0  0  0  0
   15.3500   14.5960    3.9470 N   0  0  0  0  0  0  0  0  0  0  0  0
   14.4060   12.6440    2.7050 C   0  0  0  0  0  0  0  0  0  0  0  0
   20.7660   15.8210    4.8030 C   0  0  0  0  0  0  0  0  0  0  0  0
   22.0250   16.6640    6.6230 O   0  0  0  0  0  1  0  0  0  0  0  0
   21.2440   15.7370    6.2550 C   0  0  0  0  0  0  0  0  0  0  0  0
   20.8390   14.7300    6.9060 O   0  0  0  0  0  0  0  0  0  0  0  0
   18.6843   17.3287    5.7040 H   0  0  0  0  0  0  0  0  0  0  0  0
   16.2208   16.9359    5.4127 H   0  0  0  0  0  0  0  0  0  0  0  0
   19.5887   13.7111    3.4952 H   0  0  0  0  0  0  0  0  0  0  0  0
   14.4399   15.0094    4.1953 H   0  0  0  0  0  0  0  0  0  0  0  0
   13.8286   12.2359    3.5477 H   0  0  0  0  0  0  0  0  0  0  0  0
   13.7557   13.2842    2.0908 H   0  0  0  0  0  0  0  0  0  0  0  0
   14.7924   11.8173    2.0908 H   0  0  0  0  0  0  0  0  0  0  0  0
   21.3260   15.0835    4.2094 H   0  0  0  0  0  0  0  0  0  0  0  0
   20.9433   16.8524    4.4643 H   0  0  0  0  0  0  0  0  0  0  0  0
  2  1  2  0
  3  2  1  0
  4  3  2  0
  5  4  1  0
  6  5  2  0
  6  1  1  0
  7  5  1  0
  8  7  2  0
  9  8  1  0
  9  4  1  0
 10  8  1  0
 11  1  1  0
 13 11  1  0
 13 12  1  0
 14 13  2  0
  2 15  1  0
  3 16  1  0
  6 17  1  0
  9 18  1  0
 10 19  1  0
 10 20  1  0
 10 21  1  0
 11 22  1  0
 11 23  1  0
M  CHG  1  12  -1
M  END
$$$$
=
     RDKit          3D

 32 33  0  0  0  0  0  0  0  0999 V2000
   18.7780   14.7870    4.3690 S   0  0  0  0  0  6  0  0  0  0  0  0
   19.2650   14.1620    3.1540 O   0  0  0  0  0  0  0  0  0  0  0  0
   19.1530   14.2150    5.6520 O   0  0  0  0  0  0  0  0  0  0  0  0
   16.9990   14.7630    4.3160 C   0  0  0  0  0  0  0  0  0  0  0  0
   16.2740   15.8320    4.8500 C   0  0  0  0  0  0  0  0  0  0  0  0
   14.8830   15.8410    4.7440 C   0  0  0  0  0  0  0  0  0  0  0  0
   14.2350   14.8050    4.0770 C   0  0  0  0  0  0  0  0  0  0  0  0
   14.9480   13.7520    3.4960 C   0  0  0  0  0  0  0  0  0  0  0  0
   16.3440   13.7350    3.6230 C   0  0  0  0  0  0  0  0  0  0  0  0
   14.2240   12.6360    2.8120 C   0  0  0  0  0  0  0  0  0  0  0  0
   12.8960   14.8340    3.9810 F   0  0  0  0  0  0  0  0  0  0  0  0
   20.1410   16.8990    5.4860 C   0  0  1  0  0  0  0  0  0  0  0  0
   20.3190   18.3620    5.0790 C   0  0  0  0  0  0  0  0  0  0  0  0
   20.3720   18.3390    3.5540 C   0  0  0  0  0  0  0  0  0  0  0  0
   19.7190   17.0220    3.1310 C   0  0  0  0  0  0  0  0  0  0  0  0
   19.2740   16.3880    4.3830 N   0  0  0  0  0  0  0  0  0  0  0  0
   21.8800   15.4210    4.7700 O   0  0  0  0  0  1  0  0  0  0  0  0
   21.5430   16.2630    5.6530 C   0  0  0  0  0  0  0  0  0  0  0  0
   22.1930   16.6520    6.6660 O   0  0  0  0  0  0  0  0  0  0  0  0
   16.7966   16.6605    5.3504 H   0  0  0  0  0  0  0  0  0  0  0  0
   14.3007   16.6632    5.1856 H   0  0  0  0  0  0  0  0  0  0  0  0
   16.9262   12.9143    3.1785 H   0  0  0  0  0  0  0  0  0  0  0  0
   13.7884   11.9646    3.5666 H   0  0  0  0  0  0  0  0  0  0  0  0
   13.4221   13.0502    2.1832 H   0  0  0  0  0  0  0  0  0  0  0  0
   14.9291   12.0725    2.1832 H   0  0  0  0  0  0  0  0  0  0  0  0
   19.6654   16.6791    6.4532 H   0  0  0  0  0  0  0  0  0  0  0  0
   19.4695   18.9674    5.4281 H   0  0  0  0  0  0  0  0  0  0  0  0
   21.2230   18.8083    5.5191 H   0  0  0  0  0  0  0  0  0  0  0  0
   19.8157   19.1924    3.1390 H   0  0  0  0  0  0  0  0  0  0  0  0
   21.4055   18.4139    3.1849 H   0  0  0  0  0  0  0  0  0  0  0  0
   18.8609   17.2126    2.4697 H   0  0  0  0  0  0  0  0  0  0  0  0
   20.4159   16.3802    2.5720 H   0  0  0  0  0  0  0  0  0  0  0  0
  2  1  2  0
  3  1  2  0
  4  1  1  0
  5  4  2  0
  6  5  1  0
  7  6  2  0
  8  7  1  0
  9  8  2  0
  9  4  1  0
 10  8  1  0
 11  7  1  0
 13 12  1  0
 14 13  1  0
 15 14  1  0
 16  1  1  0
 16 15  1  0
 16 12  1  0
 18 12  1  0
 18 17  1  0
 19 18  2  0
  5 20  1  0
  6 21  1  0
  9 22  1  0
 10 23  1  0
 10 24  1  0
 10 25  1  0
 12 26  1  1
 13 27  1  0
 13 28  1  0
 14 29  1  0
 14 30  1  0
 15 31  1  0
 15 32  1  0
M  CHG  1  17  -1
M  END
$$$$
=
     RDKit          3D

 44 43  0  0  0  0  0  0  0  0999 V2000
   15.3580   15.1190    6.0070 C   0  0  0  0  0  0  0  0  0  0  0  0
   14.9990   15.2850    4.5280 C   0  0  0  0  0  0  0  0  0  0  0  0
   14.0300   14.1900    4.0620 C   0  0  0  0  0  0  0  0  0  0  0  0
   14.7750   12.9580    3.5350 C   0  0  1  0  0  0  0  0  0  0  0  0
   13.8760   12.2050    2.7180 O   0  0  0  0  0  0  0  0  0  0  0  0
   15.9940   13.3100    2.6700 C   0  0  0  0  0  0  0  0  0  0  0  0
   18.3660   13.7600    3.4950 C   0  0  0  0  0  0  0  0  0  0  0  0
   17.3300   12.7130    3.1160 C   0  0  0  0  0  0  0  0  0  0  0  0
   16.5910   15.9220    6.4290 C   0  0  0  0  0  0  0  0  0  0  0  0
   17.0610   16.9280    5.3760 C   0  0  0  0  0  0  0  0  0  0  0  0
   18.5820   17.1040    5.4240 C   0  0  0  0  0  0  0  0  0  0  0  0
   19.1340   17.5430    4.0650 C   0  0  0  0  0  0  0  0  0  0  0  0
   20.6620   17.4770    3.9760 C   0  0  0  0  0  0  0  0  0  0  0  0
   21.4010   18.4550    4.8850 C   0  0  0  0  0  0  0  0  0  0  0  0
   22.5280   17.8500    5.7260 C   0  0  0  0  0  0  0  0  0  0  0  0
   22.2090   16.8730    6.4590 O   0  0  0  0  0  0  0  0  0  0  0  0
   23.6470   18.4240    5.5950 O   0  0  0  0  0  1  0  0  0  0  0  0
   14.5019   15.4512    6.6127 H   0  0  0  0  0  0  0  0  0  0  0  0
   15.5935   14.0563    6.1659 H   0  0  0  0  0  0  0  0  0  0  0  0
   14.5261   16.2674    4.3824 H   0  0  0  0  0  0  0  0  0  0  0  0
   15.9227   15.2055    3.9360 H   0  0  0  0  0  0  0  0  0  0  0  0
   13.3986   13.8884    4.9107 H   0  0  0  0  0  0  0  0  0  0  0  0
   13.4210   14.5983    3.2420 H   0  0  0  0  0  0  0  0  0  0  0  0
   15.1309   12.3973    4.4119 H   0  0  0  0  0  0  0  0  0  0  0  0
   13.2594   11.6885    3.2952 H   0  0  0  0  0  0  0  0  0  0  0  0
   15.7933   12.9583    1.6472 H   0  0  0  0  0  0  0  0  0  0  0  0
   16.1135   14.4000    2.7570 H   0  0  0  0  0  0  0  0  0  0  0  0
   18.4340   13.8287    4.5907 H   0  0  0  0  0  0  0  0  0  0  0  0
   19.3451   13.4725    3.0842 H   0  0  0  0  0  0  0  0  0  0  0  0
   18.0682   14.7360    3.0842 H   0  0  0  0  0  0  0  0  0  0  0  0
   17.1495   12.0696    3.9897 H   0  0  0  0  0  0  0  0  0  0  0  0
   17.7350   12.1517    2.2611 H   0  0  0  0  0  0  0  0  0  0  0  0
   16.3486   16.4717    7.3504 H   0  0  0  0  0  0  0  0  0  0  0  0
   17.4097   15.2015    6.5727 H   0  0  0  0  0  0  0  0  0  0  0  0
   16.7723   16.5656    4.3784 H   0  0  0  0  0  0  0  0  0  0  0  0
   16.5894   17.8996    5.5849 H   0  0  0  0  0  0  0  0  0  0  0  0
   18.8309   17.8677    6.1756 H   0  0  0  0  0  0  0  0  0  0  0  0
   19.0354   16.1370    5.6872 H   0  0  0  0  0  0  0  0  0  0  0  0
   18.7114   16.8875    3.2893 H   0  0  0  0  0  0  0  0  0  0  0  0
   18.8468   18.5954    3.9237 H   0  0  0  0  0  0  0  0  0  0  0  0
   20.9762   16.4574    4.2437 H   0  0  0  0  0  0  0  0  0  0  0  0
   20.9235   17.7563    2.9447 H   0  0  0  0  0  0  0  0  0  0  0  0
   21.8357   19.2432    4.2526 H   0  0  0  0  0  0  0  0  0  0  0  0
   20.6535   18.8242    5.6026 H   0  0  0  0  0  0  0  0  0  0  0  0
  2  1  1  0
  3  2  1  0
  4  3  1  0
  5  4  1  0
  6  4  1  0
  8  6  1  0
  8  7  1  0
  9  1  1  0
 10  9  1  0
 11 10  1  0
 12 11  1  0
 13 12  1  0
 14 13  1  0
 15 14  1  0
 16 15  2  0
 17 15  1  0
  1 18  1  0
  1 19  1  0
  2 20  1  0
  2 21  1  0
  3 22  1  0
  3 23  1  0
  4 24  1  1
  5 25  1  0
  6 26  1  0
  6 27  1  0
  7 28  1  0
  7 29  1  0
  7 30  1  0
  8 31  1  0
  8 32  1  0
  9 33  1  0
  9 34  1  0
 10 35  1  0
 10 36  1  0
 11 37  1  0
 11 38  1  0
 12 39  1  0
 12 40  1  0
 13 41  1  0
 13 42  1  0
 14 43  1  0
 14 44  1  0
M  CHG  1  17  -1
M  END
$$$$
=
     RDKit          3D

 43 43  0  0  0  0  0  0  0  0999 V2000
   30.6910   26.7580   15.7290 O   0  0  0  0  0  0  0  0  0  0  0  0
   29.5090   26.6850   15.4080 C   0  0  0  0  0  0  0  0  0  0  0  0
   28.9980   25.6890   14.6170 N   0  0  0  0  0  0  0  0  0  0  0  0
   29.7760   24.5360   14.2510 C   0  0  0  0  0  0  0  0  0  0  0  0
   28.7820   23.5360   13.6770 C   0  0  0  0  0  0  0  0  0  0  0  0
   27.5220   24.3480   13.3090 C   0  0  1  0  0  0  0  0  0  0  0  0
   27.5630   25.5010   14.3390 C   0  0  1  0  0  0  0  0  0  0  0  0
   27.4170   24.7950   11.8080 C   0  0  0  0  0  0  0  0  0  0  0  0
   27.9690   23.6830   10.8880 C   0  0  0  0  0  0  0  0  0  0  0  0
   25.9320   24.9950   11.4290 C   0  0  0  0  0  0  0  0  0  0  0  0
   28.1750   26.0970   11.4980 C   0  0  0  0  0  0  0  0  0  0  0  0
   26.6780   25.0820   15.5590 C   0  0  0  0  0  0  0  0  0  0  0  0
   25.4300   25.2590   15.4370 O   0  0  0  0  0  0  0  0  0  0  0  0
   27.3280   24.6390   16.5510 O   0  0  0  0  0  1  0  0  0  0  0  0
   28.5600   27.5910   15.7510 O   0  0  0  0  0  0  0  0  0  0  0  0
   28.6380   28.9660   15.3150 C   0  0  0  0  0  0  0  0  0  0  0  0
   27.4200   29.6470   15.9570 C   0  0  0  0  0  0  0  0  0  0  0  0
   29.9080   29.6460   15.8360 C   0  0  0  0  0  0  0  0  0  0  0  0
   28.5120   29.0760   13.7920 C   0  0  0  0  0  0  0  0  0  0  0  0
   30.5292   24.8051   13.4959 H   0  0  0  0  0  0  0  0  0  0  0  0
   30.3186   24.1210   15.1132 H   0  0  0  0  0  0  0  0  0  0  0  0
   29.2001   23.0533   12.7814 H   0  0  0  0  0  0  0  0  0  0  0  0
   28.5501   22.7399   14.3998 H   0  0  0  0  0  0  0  0  0  0  0  0
   26.6011   23.7496   13.3706 H   0  0  0  0  0  0  0  0  0  0  0  0
   27.1478   26.4650   14.0098 H   0  0  0  0  0  0  0  0  0  0  0  0
   28.3745   22.8661   11.5029 H   0  0  0  0  0  0  0  0  0  0  0  0
   27.1582   23.2963   10.2531 H   0  0  0  0  0  0  0  0  0  0  0  0
   28.7672   24.0950   10.2531 H   0  0  0  0  0  0  0  0  0  0  0  0
   25.3277   25.0764   12.3445 H   0  0  0  0  0  0  0  0  0  0  0  0
   25.8256   25.9156   10.8364 H   0  0  0  0  0  0  0  0  0  0  0  0
   25.5858   24.1354   10.8364 H   0  0  0  0  0  0  0  0  0  0  0  0
   28.4609   26.5880   12.4399 H   0  0  0  0  0  0  0  0  0  0  0  0
   29.0793   25.8652   10.9162 H   0  0  0  0  0  0  0  0  0  0  0  0
   27.5269   26.7689   10.9162 H   0  0  0  0  0  0  0  0  0  0  0  0
   27.5076   29.5980   17.0524 H   0  0  0  0  0  0  0  0  0  0  0  0
   27.3784   30.6993   15.6392 H   0  0  0  0  0  0  0  0  0  0  0  0
   26.5018   29.1314   15.6392 H   0  0  0  0  0  0  0  0  0  0  0  0
   29.9010   29.6423   16.9360 H   0  0  0  0  0  0  0  0  0  0  0  0
   30.7914   29.1002   15.4731 H   0  0  0  0  0  0  0  0  0  0  0  0
   29.9435   30.6838   15.4731 H   0  0  0  0  0  0  0  0  0  0  0  0
   27.7053   29.7803   13.5407 H   0  0  0  0  0  0  0  0  0  0  0  0
   29.4608   29.4399   13.3709 H   0  0  0  0  0  0  0  0  0  0  0  0
   28.2795   28.0867   13.3709 H   0  0  0  0  0  0  0  0  0  0  0  0
  2  1  2  0
  3  2  1  0
  4  3  1  0
  5  4  1  0
  6  5  1  0
  7  6  1  0
  7  3  1  0
  8  6  1  0
  9  8  1  0
 10  8  1  0
 11  8  1  0
 12  7  1  0
 13 12  2  0
 14 12  1  0
 15  2  1  0
 16 15  1  0
 17 16  1  0
 18 16  1  0
 19 16  1  0
  4 20  1  0
  4 21  1  0
  5 22  1  0
  5 23  1  0
  6 24  1  1
  7 25  1  6
  9 26  1  0
  9 27  1  0
  9 28  1  0
 10 29  1  0
 10 30  1  0
 10 31  1  0
 11 32  1  0
 11 33  1  0
 11 34  1  0
 17 35  1  0
 17 36  1  0
 17 37  1  0
 18 38  1  0
 18 39  1  0
 18 40  1  0
 19 41  1  0
 19 42  1  0
 19 43  1  0
M  CHG  1  14  -1
M  END
$$$$
=
     RDKit          3D

 35 35  0  0  0  0  0  0  0  0999 V2000
   20.1320   16.8300    4.3030 N   0  0  2  0  0  4  0  0  0  0  0  0
   19.2060   17.4690    5.2760 C   0  0  0  0  0  0  0  0  0  0  0  0
   18.0480   16.4800    5.3480 C   0  0  0  0  0  0  0  0  0  0  0  0
   17.8780   15.9810    3.9080 C   0  0  1  0  0  0  0  0  0  0  0  0
   19.2480   16.2170    3.2290 C   0  0  0  0  0  0  0  0  0  0  0  0
   17.3300   14.5460    3.8780 N   0  0  2  0  0  4  0  0  0  0  0  0
   18.3170   13.4690    3.4340 C   0  0  0  0  0  0  0  0  0  0  0  0
   15.9480   14.4360    3.2130 C   0  0  0  0  0  0  0  0  0  0  0  0
   14.8620   14.9410    4.1610 C   0  0  0  0  0  0  0  0  0  0  0  0
   15.6540   13.0260    2.7130 C   0  0  0  0  0  0  0  0  0  0  0  0
   21.1280   15.8250    4.9580 C   0  0  0  0  0  0  0  0  0  0  0  0
   21.1440   15.4560    7.2830 O   0  0  0  0  0  1  0  0  0  0  0  0
   21.5810   16.2220    6.3810 C   0  0  0  0  0  0  0  0  0  0  0  0
   22.5120   17.0700    6.3820 O   0  0  0  0  0  0  0  0  0  0  0  0
   20.7684   17.5260    3.8890 H   0  0  0  0  0  0  0  0  0  0  0  0
   19.6858   17.5882    6.2587 H   0  0  0  0  0  0  0  0  0  0  0  0
   18.8940   18.4806    4.9773 H   0  0  0  0  0  0  0  0  0  0  0  0
   18.2909   15.6456    6.0224 H   0  0  0  0  0  0  0  0  0  0  0  0
   17.1297   16.9397    5.7422 H   0  0  0  0  0  0  0  0  0  0  0  0
   17.1140   16.5257    3.3339 H   0  0  0  0  0  0  0  0  0  0  0  0
   19.6727   15.2647    2.8785 H   0  0  0  0  0  0  0  0  0  0  0  0
   19.1606   16.8714    2.3492 H   0  0  0  0  0  0  0  0  0  0  0  0
   17.1825   14.3239    4.8729 H   0  0  0  0  0  0  0  0  0  0  0  0
   18.7578   12.9880    4.3196 H   0  0  0  0  0  0  0  0  0  0  0  0
   17.7900   12.7147    2.8312 H   0  0  0  0  0  0  0  0  0  0  0  0
   19.1143   13.9283    2.8312 H   0  0  0  0  0  0  0  0  0  0  0  0
   15.9542   15.0791    2.3206 H   0  0  0  0  0  0  0  0  0  0  0  0
   15.1850   14.7908    5.2017 H   0  0  0  0  0  0  0  0  0  0  0  0
   14.6882   16.0123    3.9820 H   0  0  0  0  0  0  0  0  0  0  0  0
   13.9308   14.3835    3.9820 H   0  0  0  0  0  0  0  0  0  0  0  0
   15.5139   12.3540    3.5725 H   0  0  0  0  0  0  0  0  0  0  0  0
   14.7388   13.0367    2.1029 H   0  0  0  0  0  0  0  0  0  0  0  0
   16.4972   12.6700    2.1029 H   0  0  0  0  0  0  0  0  0  0  0  0
   20.6395   14.8409    5.0130 H   0  0  0  0  0  0  0  0  0  0  0  0
   22.0302   15.8171    4.3287 H   0  0  0  0  0  0  0  0  0  0  0  0
  2  1  1  0
  3  2  1  0
  4  3  1  0
  5  4  1  0
  5  1  1  0
  6  4  1  0
  7  6  1  0
  8  6  1  0
  9  8  1  0
 10  8  1  0
 11  1  1  0
 13 11  1  0
 13 12  1  0
 14 13  2  0
  1 15  1  6
  2 16  1  0
  2 17  1  0
  3 18  1  0
  3 19  1  0
  4 20  1  6
  5 21  1  0
  5 22  1  0
  6 23  1  1
  7 24  1  0
  7 25  1  0
  7 26  1  0
  8 27  1  0
  9 28  1  0
  9 29  1  0
  9 30  1  0
 10 31  1  0
 10 32  1  0
 10 33  1  0
 11 34  1  0
 11 35  1  0
M  CHG  3   1   1   6   1  12  -1
M  END
$$$$
=
     RDKit          3D

 18 17  0  0  0  0  0  0  0  0999 V2000
   19.1940   17.4840    4.0590 C   0  0  0  0  0  0  0  0  0  0  0  0
   17.1810   16.4920    5.8180 Br  0  0  0  0  0  0  0  0  0  0  0  0
   18.2540   16.2810    4.1530 C   0  0  2  0  0  0  0  0  0  0  0  0
   18.8860   14.8750    4.2580 C   0  0  0  0  0  0  0  0  0  0  0  0
   19.2190   14.3480    3.1520 O   0  0  0  0  0  0  0  0  0  0  0  0
   19.0150   14.3930    5.4210 O   0  0  0  0  0  1  0  0  0  0  0  0
   19.5630   18.0830    5.4270 C   0  0  0  0  0  0  0  0  0  0  0  0
   21.0420   17.9240    5.7840 C   0  0  2  0  0  0  0  0  0  0  0  0
   22.1040   18.6180    4.2490 Br  0  0  0  0  0  0  0  0  0  0  0  0
   21.5770   16.4960    6.0290 C   0  0  0  0  0  0  0  0  0  0  0  0
   21.3900   16.0060    7.1820 O   0  0  0  0  0  0  0  0  0  0  0  0
   22.1590   15.9600    5.0370 O   0  0  0  0  0  1  0  0  0  0  0  0
   20.1195   17.1643    3.5579 H   0  0  0  0  0  0  0  0  0  0  0  0
   18.6633   18.2659    3.4960 H   0  0  0  0  0  0  0  0  0  0  0  0
   17.7053   16.3009    3.1998 H   0  0  0  0  0  0  0  0  0  0  0  0
   19.3215   19.1561    5.4138 H   0  0  0  0  0  0  0  0  0  0  0  0
   18.9862   17.5348    6.1864 H   0  0  0  0  0  0  0  0  0  0  0  0
   21.1406   18.4581    6.7406 H   0  0  0  0  0  0  0  0  0  0  0  0
  3  1  1  0
  3  2  1  0
  4  3  1  0
  5  4  2  0
  6  4  1  0
  7  1  1  0
  8  7  1  0
  9  8  1  0
 10  8  1  0
 11 10  2  0
 12 10  1  0
  1 13  1  0
  1 14  1  0
  3 15  1  6
  7 16  1  0
  7 17  1  0
  8 18  1  1
M  CHG  2   6  -1  12  -1
M  END
$$$$
=
     RDKit          3D

 19 19  0  0  0  0  0  0  0  0999 V2000
   21.2330   17.1820    4.4870 C   0  0  0  0  0  0  0  0  0  0  0  0
   20.8690   17.9710    3.4110 C   0  0  0  0  0  0  0  0  0  0  0  0
   19.5440   17.2780    2.5900 S   0  0  0  0  0  0  0  0  0  0  0  0
   19.5310   15.9710    3.7110 C   0  0  0  0  0  0  0  0  0  0  0  0
   20.4450   16.0370    4.6570 N   0  0  0  0  0  0  0  0  0  0  0  0
   22.5720   16.9800    6.5260 O   0  0  0  0  0  1  0  0  0  0  0  0
   22.4760   17.6050    5.4200 C   0  0  0  0  0  0  0  0  0  0  0  0
   23.2470   18.5180    4.9970 O   0  0  0  0  0  0  0  0  0  0  0  0
   18.5720   14.8680    3.6210 C   0  0  0  0  0  0  0  0  0  0  0  0
   18.8590   13.7380    3.2130 O   0  0  0  0  0  0  0  0  0  0  0  0
   17.1200   15.1790    4.0470 C   0  0  0  0  0  0  0  0  0  0  0  0
   16.8950   16.2960    4.9010 O   0  0  0  0  0  0  0  0  0  0  0  0
   16.6160   15.9110    6.2420 C   0  0  0  0  0  0  0  0  0  0  0  0
   21.3634   18.9112    3.1254 H   0  0  0  0  0  0  0  0  0  0  0  0
   16.5395   15.3485    3.1282 H   0  0  0  0  0  0  0  0  0  0  0  0
   16.8202   14.3094    4.6502 H   0  0  0  0  0  0  0  0  0  0  0  0
   17.1177   16.6033    6.9342 H   0  0  0  0  0  0  0  0  0  0  0  0
   15.5301   15.9431    6.4143 H   0  0  0  0  0  0  0  0  0  0  0  0
   16.9846   14.8890    6.4143 H   0  0  0  0  0  0  0  0  0  0  0  0
  2  1  2  0
  3  2  1  0
  4  3  1  0
  5  4  2  0
  5  1  1  0
  7  1  1  0
  7  6  1  0
  8  7  2  0
  9  4  1  0
 10  9  2  0
 11  9  1  0
 12 11  1  0
 13 12  1  0
  2 14  1  0
 11 15  1  0
 11 16  1  0
 13 17  1  0
 13 18  1  0
 13 19  1  0
M  CHG  1   6  -1
M  END
$$$$
=
     RDKit          3D

 44 46  0  0  0  0  0  0  0  0999 V2000
   26.3940   23.9390   15.4010 O   0  0  0  0  0  0  0  0  0  0  0  0
   26.7800   24.6400   14.4730 C   0  0  0  0  0  0  0  0  0  0  0  0
   26.1890   24.6500   13.2430 N   0  0  0  0  0  0  0  0  0  0  0  0
   24.9480   23.9420   12.9060 C   0  0  2  0  0  0  0  0  0  0  0  0
   25.2540   23.6710   11.4230 C   0  0  0  0  0  0  0  0  0  0  0  0
   25.4360   25.1850   11.0790 C   0  0  2  0  0  0  0  0  0  0  0  0
   26.5220   25.5750   12.1170 C   0  0  2  0  0  0  0  0  0  0  0  0
   24.0110   25.5640   11.4750 C   0  0  1  0  0  0  0  0  0  0  0  0
   23.9110   25.0820   12.9040 C   0  0  1  0  0  0  0  0  0  0  0  0
   22.5030   25.0810   13.0370 O   0  0  0  0  0  0  0  0  0  0  0  0
   22.1980   26.3880   12.4180 C   0  0  0  0  0  0  0  0  0  0  0  0
   23.3420   26.7990   11.5840 O   0  0  0  0  0  0  0  0  0  0  0  0
   21.9730   27.4410   13.4990 C   0  0  0  0  0  0  0  0  0  0  0  0
   20.9540   26.2320   11.5480 C   0  0  0  0  0  0  0  0  0  0  0  0
   27.9160   25.4230   11.4440 C   0  0  0  0  0  0  0  0  0  0  0  0
   28.2160   24.2740   11.0100 O   0  0  0  0  0  0  0  0  0  0  0  0
   28.5800   26.5000   11.3770 O   0  0  0  0  0  1  0  0  0  0  0  0
   27.8000   25.5280   14.5420 O   0  0  0  0  0  0  0  0  0  0  0  0
   29.1180   25.1320   14.9830 C   0  0  0  0  0  0  0  0  0  0  0  0
   29.1920   25.0500   16.5120 C   0  0  0  0  0  0  0  0  0  0  0  0
   30.0440   26.2620   14.5060 C   0  0  0  0  0  0  0  0  0  0  0  0
   29.5590   23.8240   14.3170 C   0  0  0  0  0  0  0  0  0  0  0  0
   24.6412   23.0780   13.5138 H   0  0  0  0  0  0  0  0  0  0  0  0
   26.1676   23.0779   11.2694 H   0  0  0  0  0  0  0  0  0  0  0  0
   24.5299   23.0849   10.8380 H   0  0  0  0  0  0  0  0  0  0  0  0
   25.7348   25.5853   10.0990 H   0  0  0  0  0  0  0  0  0  0  0  0
   26.5501   26.6097   12.4893 H   0  0  0  0  0  0  0  0  0  0  0  0
   23.5381   25.1909   10.5546 H   0  0  0  0  0  0  0  0  0  0  0  0
   24.1980   25.5537   13.8554 H   0  0  0  0  0  0  0  0  0  0  0  0
   22.0725   26.9755   14.4907 H   0  0  0  0  0  0  0  0  0  0  0  0
   22.7205   28.2410   13.3928 H   0  0  0  0  0  0  0  0  0  0  0  0
   20.9638   27.8657   13.3928 H   0  0  0  0  0  0  0  0  0  0  0  0
   20.0684   26.1209   12.1910 H   0  0  0  0  0  0  0  0  0  0  0  0
   20.8367   27.1225   10.9129 H   0  0  0  0  0  0  0  0  0  0  0  0
   21.0602   25.3401   10.9129 H   0  0  0  0  0  0  0  0  0  0  0  0
   28.5167   25.7983   16.9524 H   0  0  0  0  0  0  0  0  0  0  0  0
   28.8894   24.0447   16.8404 H   0  0  0  0  0  0  0  0  0  0  0  0
   30.2230   25.2481   16.8404 H   0  0  0  0  0  0  0  0  0  0  0  0
   30.4689   26.7806   15.3781 H   0  0  0  0  0  0  0  0  0  0  0  0
   30.8576   25.8378   13.8993 H   0  0  0  0  0  0  0  0  0  0  0  0
   29.4682   26.9764   13.8993 H   0  0  0  0  0  0  0  0  0  0  0  0
   29.8085   23.0840   15.0917 H   0  0  0  0  0  0  0  0  0  0  0  0
   28.7414   23.4376   13.6906 H   0  0  0  0  0  0  0  0  0  0  0  0
   30.4436   24.0115   13.6906 H   0  0  0  0  0  0  0  0  0  0  0  0
  2  1  2  0
  3  2  1  0
  4  3  1  0
  5  4  1  0
  6  5  1  0
  7  6  1  0
  7  3  1  0
  8  6  1  0
  9  8  1  0
  9  4  1  0
 10  9  1  0
 11 10  1  0
 12 11  1  0
 12  8  1  0
 13 11  1  0
 14 11  1  0
 15  7  1  0
 16 15  2  0
 17 15  1  0
 18  2  1  0
 19 18  1  0
 20 19  1  0
 21 19  1  0
 22 19  1  0
  4 23  1  1
  5 24  1  0
  5 25  1  0
  6 26  1  6
  7 27  1  1
  8 28  1  6
  9 29  1  1
 13 30  1  0
 13 31  1  0
 13 32  1  0
 14 33  1  0
 14 34  1  0
 14 35  1  0
 20 36  1  0
 20 37  1  0
 20 38  1  0
 21 39  1  0
 21 40  1  0
 21 41  1  0
 22 42  1  0
 22 43  1  0
 22 44  1  0
M  CHG  1  17  -1
M  END
$$$$
=
     RDKit          3D

 34 34  0  0  0  0  0  0  0  0999 V2000
   18.3600   15.3160    5.5310 C   0  0  0  0  0  0  0  0  0  0  0  0
   18.0410   14.8150    4.2680 C   0  0  0  0  0  0  0  0  0  0  0  0
   16.7130   14.7650    3.8340 C   0  0  0  0  0  0  0  0  0  0  0  0
   15.6770   15.2230    4.6560 C   0  0  0  0  0  0  0  0  0  0  0  0
   16.0010   15.7080    5.9290 C   0  0  0  0  0  0  0  0  0  0  0  0
   17.3320   15.7590    6.3630 C   0  0  0  0  0  0  0  0  0  0  0  0
   14.2920   15.1260    4.1760 C   0  0  0  0  0  0  0  0  0  0  0  0
   13.4320   14.1480    4.5010 C   0  0  0  0  0  0  0  0  0  0  0  0
   11.9980   14.1060    3.9690 C   0  0  0  0  0  0  0  0  0  0  0  0
   11.7710   13.3080    3.0180 O   0  0  0  0  0  0  0  0  0  0  0  0
   11.2120   14.8930    4.5680 O   0  0  0  0  0  1  0  0  0  0  0  0
   19.6950   15.3110    5.8320 O   0  0  0  0  0  0  0  0  0  0  0  0
   20.5880   15.7400    4.8080 C   0  0  0  0  0  0  0  0  0  0  0  0
   21.1480   17.1150    5.1810 C   0  0  0  0  0  0  0  0  0  0  0  0
   19.5960   17.9430    3.3310 C   0  0  0  0  0  0  0  0  0  0  0  0
   20.3590   18.3080    4.6070 C   0  0  0  0  0  0  0  0  0  0  0  0
   19.3810   18.8360    5.6600 C   0  0  0  0  0  0  0  0  0  0  0  0
   18.8433   14.4555    3.6068 H   0  0  0  0  0  0  0  0  0  0  0  0
   16.4802   14.3620    2.8373 H   0  0  0  0  0  0  0  0  0  0  0  0
   15.1990   16.0539    6.5977 H   0  0  0  0  0  0  0  0  0  0  0  0
   17.5673   16.1500    7.3639 H   0  0  0  0  0  0  0  0  0  0  0  0
   13.9324   15.9147    3.4988 H   0  0  0  0  0  0  0  0  0  0  0  0
   13.7707   13.3471    5.1747 H   0  0  0  0  0  0  0  0  0  0  0  0
   21.4132   15.0190    4.7121 H   0  0  0  0  0  0  0  0  0  0  0  0
   20.0521   15.8038    3.8495 H   0  0  0  0  0  0  0  0  0  0  0  0
   21.1473   17.1994    6.2778 H   0  0  0  0  0  0  0  0  0  0  0  0
   22.1559   17.1694    4.7439 H   0  0  0  0  0  0  0  0  0  0  0  0
   18.6335   17.4825    3.5984 H   0  0  0  0  0  0  0  0  0  0  0  0
   19.4156   18.8523    2.7389 H   0  0  0  0  0  0  0  0  0  0  0  0
   20.1907   17.2319    2.7389 H   0  0  0  0  0  0  0  0  0  0  0  0
   21.0888   19.0873    4.3424 H   0  0  0  0  0  0  0  0  0  0  0  0
   19.7744   18.6236    6.6650 H   0  0  0  0  0  0  0  0  0  0  0  0
   19.2596   19.9222    5.5358 H   0  0  0  0  0  0  0  0  0  0  0  0
   18.4063   18.3416    5.5358 H   0  0  0  0  0  0  0  0  0  0  0  0
  2  1  2  0
  3  2  1  0
  4  3  2  0
  5  4  1  0
  6  5  2  0
  6  1  1  0
  7  4  1  0
  8  7  2  0
  9  8  1  0
 10  9  2  0
 11  9  1  0
 12  1  1  0
 13 12  1  0
 14 13  1  0
 16 15  1  0
 16 14  1  0
 17 16  1  0
  2 18  1  0
  3 19  1  0
  5 20  1  0
  6 21  1  0
  7 22  1  0
  8 23  1  0
 13 24  1  0
 13 25  1  0
 14 26  1  0
 14 27  1  0
 15 28  1  0
 15 29  1  0
 15 30  1  0
 16 31  1  0
 17 32  1  0
 17 33  1  0
 17 34  1  0
M  CHG  1  11  -1
M  END
$$$$
=
     RDKit          3D

 27 27  0  0  0  0  0  0  0  0999 V2000
   19.5500   14.9630    4.0750 C   0  0  0  0  0  0  0  0  0  0  0  0
   18.0500   14.7930    3.9380 C   0  0  0  0  0  0  0  0  0  0  0  0
   17.1710   15.7620    4.4470 C   0  0  0  0  0  0  0  0  0  0  0  0
   15.7940   15.5910    4.3190 C   0  0  0  0  0  0  0  0  0  0  0  0
   14.9640   16.5300    4.7950 F   0  0  0  0  0  0  0  0  0  0  0  0
   15.2770   14.4640    3.6950 C   0  0  0  0  0  0  0  0  0  0  0  0
   16.1420   13.5000    3.1940 C   0  0  0  0  0  0  0  0  0  0  0  0
   17.5210   13.6550    3.3090 C   0  0  0  0  0  0  0  0  0  0  0  0
   15.6520   12.4090    2.5870 F   0  0  0  0  0  0  0  0  0  0  0  0
   13.9510   14.3100    3.5680 F   0  0  0  0  0  0  0  0  0  0  0  0
   19.9970   15.8980    5.2060 C   0  0  2  0  0  0  0  0  0  0  0  0
   21.0760   16.8290    4.8090 N   0  0  0  0  0  0  0  0  0  0  0  0
   20.8800   18.0790    4.2990 C   0  0  0  0  0  0  0  0  0  0  0  0
   19.7890   18.5330    3.9670 O   0  0  0  0  0  0  0  0  0  0  0  0
   22.1450   18.8810    4.1490 C   0  0  0  0  0  0  0  0  0  0  0  0
   21.3060   15.5780    7.2030 O   0  0  0  0  0  1  0  0  0  0  0  0
   20.3790   15.0980    6.4940 C   0  0  0  0  0  0  0  0  0  0  0  0
   19.6970   14.0380    6.6580 O   0  0  0  0  0  0  0  0  0  0  0  0
   19.9902   13.9717    4.2580 H   0  0  0  0  0  0  0  0  0  0  0  0
   19.8930   15.4278    3.1389 H   0  0  0  0  0  0  0  0  0  0  0  0
   17.5695   16.6569    4.9473 H   0  0  0  0  0  0  0  0  0  0  0  0
   18.1962   12.8853    2.9068 H   0  0  0  0  0  0  0  0  0  0  0  0
   19.1249   16.5267    5.4385 H   0  0  0  0  0  0  0  0  0  0  0  0
   22.0481   16.5094    4.9265 H   0  0  0  0  0  0  0  0  0  0  0  0
   22.5404   19.1317    5.1444 H   0  0  0  0  0  0  0  0  0  0  0  0
   22.8904   18.2901    3.5965 H   0  0  0  0  0  0  0  0  0  0  0  0
   21.9286   19.8072    3.5965 H   0  0  0  0  0  0  0  0  0  0  0  0
  2  1  1  0
  3  2  2  0
  4  3  1  0
  5  4  1  0
  6  4  2  0
  7  6  1  0
  8  7  2  0
  8  2  1  0
  9  7  1  0
 10  6  1  0
 11  1  1  0
 12 11  1  0
 13 12  1  0
 14 13  2  0
 15 13  1  0
 17 11  1  0
 17 16  1  0
 18 17  2  0
  1 19  1  0
  1 20  1  0
  3 21  1  0
  8 22  1  0
 11 23  1  1
 12 24  1  0
 15 25  1  0
 15 26  1  0
 15 27  1  0
M  CHG  1  16  -1
M  END
$$$$
=
     RDKit          3D

 29 30  0  0  0  0  0  0  0  0999 V2000
   19.0450   15.5390    3.8120 C   0  0  1  0  0  0  0  0  0  0  0  0
   19.4990   16.8720    3.5830 N   0  0  0  0  0  0  0  0  0  0  0  0
   20.6820   17.1680    4.2330 C   0  0  0  0  0  0  0  0  0  0  0  0
   21.2270   18.2570    4.1510 O   0  0  0  0  0  0  0  0  0  0  0  0
   21.1660   15.9210    4.9140 C   0  0  2  0  0  0  0  0  0  0  0  0
   19.9290   15.0180    4.9390 C   0  0  0  0  0  0  0  0  0  0  0  0
   16.7700   14.3270    3.5970 C   0  0  0  0  0  0  0  0  0  0  0  0
   15.4050   14.2510    3.8960 C   0  0  0  0  0  0  0  0  0  0  0  0
   14.7990   15.2480    4.6550 C   0  0  0  0  0  0  0  0  0  0  0  0
   15.5570   16.3160    5.1240 C   0  0  0  0  0  0  0  0  0  0  0  0
   16.9240   16.3800    4.8400 C   0  0  0  0  0  0  0  0  0  0  0  0
   17.5640   15.3790    4.0820 C   0  0  0  0  0  0  0  0  0  0  0  0
   16.2710   12.4220    2.4030 C   0  0  0  0  0  0  0  0  0  0  0  0
   17.3070   13.2930    2.8750 O   0  0  0  0  0  0  0  0  0  0  0  0
   21.6430   16.2280    6.3190 C   0  0  0  0  0  0  0  0  0  0  0  0
   21.0900   15.5860    7.2580 O   0  0  0  0  0  0  0  0  0  0  0  0
   22.6110   17.0420    6.3790 O   0  0  0  0  0  1  0  0  0  0  0  0
   19.1424   14.9465    2.8903 H   0  0  0  0  0  0  0  0  0  0  0  0
   18.9945   17.5475    2.9913 H   0  0  0  0  0  0  0  0  0  0  0  0
   22.0204   15.4558    4.4006 H   0  0  0  0  0  0  0  0  0  0  0  0
   20.2103   13.9701    4.7582 H   0  0  0  0  0  0  0  0  0  0  0  0
   19.4176   15.0405    5.9126 H   0  0  0  0  0  0  0  0  0  0  0  0
   14.8096   13.4014    3.5304 H   0  0  0  0  0  0  0  0  0  0  0  0
   13.7244   15.1916    4.8832 H   0  0  0  0  0  0  0  0  0  0  0  0
   15.0807   17.1098    5.7181 H   0  0  0  0  0  0  0  0  0  0  0  0
   17.5128   17.2296    5.2161 H   0  0  0  0  0  0  0  0  0  0  0  0
   15.7446   11.9794    3.2615 H   0  0  0  0  0  0  0  0  0  0  0  0
   15.5587   12.9965    1.7926 H   0  0  0  0  0  0  0  0  0  0  0  0
   16.7147   11.6216    1.7926 H   0  0  0  0  0  0  0  0  0  0  0  0
  2  1  1  0
  3  2  1  0
  4  3  2  0
  5  3  1  0
  6  5  1  0
  6  1  1  0
  8  7  2  0
  9  8  1  0
 10  9  2  0
 11 10  1  0
 12  7  1  0
 12  1  1  0
 12 11  2  0
 14 13  1  0
 14  7  1  0
 15  5  1  0
 16 15  2  0
 17 15  1  0
  1 18  1  6
  2 19  1  0
  5 20  1  6
  6 21  1  0
  6 22  1  0
  8 23  1  0
  9 24  1  0
 10 25  1  0
 11 26  1  0
 13 27  1  0
 13 28  1  0
 13 29  1  0
M  CHG  1  17  -1
M  END
$$$$
=
     RDKit          3D

 20 20  0  0  0  0  0  0  0  0999 V2000
   17.8240   15.4200    3.9470 C   0  0  0  0  0  0  0  0  0  0  0  0
   16.9600   14.4200    3.4480 C   0  0  0  0  0  0  0  0  0  0  0  0
   15.6200   14.3330    3.8490 C   0  0  0  0  0  0  0  0  0  0  0  0
   15.1410   15.2590    4.7810 C   0  0  0  0  0  0  0  0  0  0  0  0
   15.9830   16.2470    5.2940 C   0  0  0  0  0  0  0  0  0  0  0  0
   17.3340   16.3400    4.8990 C   0  0  0  0  0  0  0  0  0  0  0  0
   18.2110   17.4120    5.5270 C   0  0  0  0  0  0  0  0  0  0  0  0
   18.8420   18.2380    4.6490 F   0  0  0  0  0  0  0  0  0  0  0  0
   17.5950   18.1710    6.4740 F   0  0  0  0  0  0  0  0  0  0  0  0
   19.2570   16.8310    6.2160 F   0  0  0  0  0  0  0  0  0  0  0  0
   14.7290   13.2440    3.3150 C   0  0  0  0  0  0  0  0  0  0  0  0
   15.0430   12.8830    2.0340 F   0  0  0  0  0  0  0  0  0  0  0  0
   13.4160   13.6090    3.2740 F   0  0  0  0  0  0  0  0  0  0  0  0
   14.7730   12.0870    4.0340 F   0  0  0  0  0  0  0  0  0  0  0  0
   19.4550   16.2390    2.4450 O   0  0  0  0  0  1  0  0  0  0  0  0
   19.2420   15.4740    3.4300 C   0  0  0  0  0  0  0  0  0  0  0  0
   20.0870   14.7280    4.0100 O   0  0  0  0  0  0  0  0  0  0  0  0
   17.3500   13.6891    2.7244 H   0  0  0  0  0  0  0  0  0  0  0  0
   14.0933   15.2084    5.1122 H   0  0  0  0  0  0  0  0  0  0  0  0
   15.5844   16.9688    6.0221 H   0  0  0  0  0  0  0  0  0  0  0  0
  2  1  2  0
  3  2  1  0
  4  3  2  0
  5  4  1  0
  6  5  2  0
  6  1  1  0
  7  6  1  0
  8  7  1  0
  9  7  1  0
 10  7  1  0
 11  3  1  0
 12 11  1  0
 13 11  1  0
 14 11  1  0
 16 15  1  0
 16  1  1  0
 17 16  2  0
  2 18  1  0
  4 19  1  0
  5 20  1  0
M  CHG  1  15  -1
M  END
$$$$
=
     RDKit          3D

 39 40  0  0  0  0  0  0  0  0999 V2000
   30.4200   25.9990   14.2590 O   0  0  0  0  0  0  0  0  0  0  0  0
   29.3300   26.5360   14.1160 C   0  0  0  0  0  0  0  0  0  0  0  0
   28.2480   25.9660   13.4600 N   0  0  0  0  0  0  0  0  0  0  0  0
   27.0520   26.7650   13.1550 C   0  0  0  0  0  0  0  0  0  0  0  0
   25.9630   25.9340   12.5060 C   0  0  2  0  0  0  0  0  0  0  0  0
   24.5230   26.3250   12.7190 C   0  0  0  0  0  0  0  0  0  0  0  0
   23.8280   25.0020   12.4130 C   0  0  0  0  0  0  0  0  0  0  0  0
   24.7010   23.9510   12.8630 O   0  0  0  0  0  0  0  0  0  0  0  0
   25.9750   24.5490   13.1190 C   0  0  1  0  0  0  0  0  0  0  0  0
   27.2130   23.7720   12.7260 C   0  0  2  0  0  0  0  0  0  0  0  0
   28.4460   24.7000   12.7200 C   0  0  0  0  0  0  0  0  0  0  0  0
   27.2710   23.1480   11.3330 C   0  0  0  0  0  0  0  0  0  0  0  0
   26.5280   22.1490   11.1220 O   0  0  0  0  0  0  0  0  0  0  0  0
   28.0310   23.7530   10.5200 O   0  0  0  0  0  1  0  0  0  0  0  0
   29.0310   27.7770   14.5940 O   0  0  0  0  0  0  0  0  0  0  0  0
   29.2460   28.1130   15.9870 C   0  0  0  0  0  0  0  0  0  0  0  0
   28.2310   29.2300   16.2740 C   0  0  0  0  0  0  0  0  0  0  0  0
   30.6570   28.6680   16.2170 C   0  0  0  0  0  0  0  0  0  0  0  0
   28.9370   26.9260   16.9050 C   0  0  0  0  0  0  0  0  0  0  0  0
   26.6624   27.1922   14.0908 H   0  0  0  0  0  0  0  0  0  0  0  0
   27.3432   27.5551   12.4472 H   0  0  0  0  0  0  0  0  0  0  0  0
   26.2133   26.0507   11.4412 H   0  0  0  0  0  0  0  0  0  0  0  0
   24.3393   26.6506   13.7535 H   0  0  0  0  0  0  0  0  0  0  0  0
   24.1830   27.1738   12.1074 H   0  0  0  0  0  0  0  0  0  0  0  0
   22.8673   24.9485   12.9460 H   0  0  0  0  0  0  0  0  0  0  0  0
   23.6240   24.9071   11.3363 H   0  0  0  0  0  0  0  0  0  0  0  0
   26.0796   24.5711   14.2138 H   0  0  0  0  0  0  0  0  0  0  0  0
   27.1913   22.9663   13.4746 H   0  0  0  0  0  0  0  0  0  0  0  0
   29.2881   24.1598   13.1772 H   0  0  0  0  0  0  0  0  0  0  0  0
   28.6368   24.9702   11.6709 H   0  0  0  0  0  0  0  0  0  0  0  0
   28.1190   29.3532   17.3613 H   0  0  0  0  0  0  0  0  0  0  0  0
   28.5883   30.1723   15.8331 H   0  0  0  0  0  0  0  0  0  0  0  0
   27.2589   28.9643   15.8331 H   0  0  0  0  0  0  0  0  0  0  0  0
   30.8496   28.7438   17.2974 H   0  0  0  0  0  0  0  0  0  0  0  0
   31.3955   27.9934   15.7593 H   0  0  0  0  0  0  0  0  0  0  0  0
   30.7380   29.6650   15.7593 H   0  0  0  0  0  0  0  0  0  0  0  0
   29.0196   27.2433   17.9550 H   0  0  0  0  0  0  0  0  0  0  0  0
   27.9156   26.5675   16.7096 H   0  0  0  0  0  0  0  0  0  0  0  0
   29.6539   26.1150   16.7096 H   0  0  0  0  0  0  0  0  0  0  0  0
  2  1  2  0
  3  2  1  0
  4  3  1  0
  5  4  1  0
  6  5  1  0
  7  6  1  0
  8  7  1  0
  9  8  1  0
  9  5  1  0
 10  9  1  0
 11 10  1  0
 11  3  1  0
 12 10  1  0
 13 12  2  0
 14 12  1  0
 15  2  1  0
 16 15  1  0
 17 16  1  0
 18 16  1  0
 19 16  1  0
  4 20  1  0
  4 21  1  0
  5 22  1  6
  6 23  1  0
  6 24  1  0
  7 25  1  0
  7 26  1  0
  9 27  1  1
 10 28  1  1
 11 29  1  0
 11 30  1  0
 17 31  1  0
 17 32  1  0
 17 33  1  0
 18 34  1  0
 18 35  1  0
 18 36  1  0
 19 37  1  0
 19 38  1  0
 19 39  1  0
M  CHG  1  14  -1
M  END
$$$$
=
     RDKit          3D

 19 18  0  0  0  0  0  0  0  0999 V2000
   19.1640   17.6300    4.1120 C   0  0  0  0  0  0  0  0  0  0  0  0
   20.0700   18.1330    5.2460 C   0  0  0  0  0  0  0  0  0  0  0  0
   21.4880   18.4850    4.8020 C   0  0  0  0  0  0  0  0  0  0  0  0
   22.3210   16.9300    6.4150 O   0  0  0  0  0  1  0  0  0  0  0  0
   22.6150   17.9040    5.6680 C   0  0  0  0  0  0  0  0  0  0  0  0
   23.7330   18.4830    5.5280 O   0  0  0  0  0  0  0  0  0  0  0  0
   19.6290   16.3120    3.4980 C   0  0  0  0  0  0  0  0  0  0  0  0
   18.8660   14.8800    4.2550 S   0  0  0  0  0  6  0  0  0  0  0  0
   17.5010   15.3290    4.5300 O   0  0  0  0  0  0  0  0  0  0  0  0
   19.6680   14.6300    5.4520 O   0  0  0  0  0  0  0  0  0  0  0  0
   18.9570   13.8380    3.2320 O   0  0  0  0  0  1  0  0  0  0  0  0
   18.1500   17.4879    4.5140 H   0  0  0  0  0  0  0  0  0  0  0  0
   19.1952   18.3866    3.3141 H   0  0  0  0  0  0  0  0  0  0  0  0
   19.6110   19.0329    5.6814 H   0  0  0  0  0  0  0  0  0  0  0  0
   20.1596   17.3091    5.9693 H   0  0  0  0  0  0  0  0  0  0  0  0
   21.6237   18.1138    3.7754 H   0  0  0  0  0  0  0  0  0  0  0  0
   21.5703   19.5782    4.8926 H   0  0  0  0  0  0  0  0  0  0  0  0
   19.3794   16.3170    2.4267 H   0  0  0  0  0  0  0  0  0  0  0  0
   20.7133   16.2349    3.6666 H   0  0  0  0  0  0  0  0  0  0  0  0
  2  1  1  0
  3  2  1  0
  5  3  1  0
  5  4  1  0
  6  5  2  0
  7  1  1  0
  8  7  1  0
  9  8  2  0
 10  8  2  0
 11  8  1  0
  1 12  1  0
  1 13  1  0
  2 14  1  0
  2 15  1  0
  3 16  1  0
  3 17  1  0
  7 18  1  0
  7 19  1  0
M  CHG  2   4  -1  11  -1
M  END
$$$$
=
     RDKit          3D

 55 58  0  0  0  0  0  0  0  0999 V2000
   18.1440   17.5590    5.5340 N   0  0  0  0  0  0  0  0  0  0  0  0
   17.1880   16.7620    6.0770 C   0  0  0  0  0  0  0  0  0  0  0  0
   17.3510   15.9610    6.9860 O   0  0  0  0  0  0  0  0  0  0  0  0
   19.5430   17.4590    5.8940 C   0  0  0  0  0  0  0  0  0  0  0  0
   20.4520   16.9070    4.7550 C   0  0  0  0  0  0  0  0  0  0  0  0
   21.8480   17.5880    4.8800 C   0  0  0  0  0  0  0  0  0  0  0  0
   21.9020   18.9410    4.1750 C   0  0  0  0  0  0  0  0  0  0  0  0
   21.6520   18.8090    2.6730 C   0  0  0  0  0  0  0  0  0  0  0  0
   20.8170   17.5840    2.2990 C   0  0  0  0  0  0  0  0  0  0  0  0
   19.7990   17.2430    3.3830 C   0  0  0  0  0  0  0  0  0  0  0  0
   20.6040   15.3750    4.9770 C   0  0  0  0  0  0  0  0  0  0  0  0
   21.3480   15.3830    7.2190 O   0  0  0  0  0  1  0  0  0  0  0  0
   20.5240   14.8640    6.4160 C   0  0  0  0  0  0  0  0  0  0  0  0
   19.6190   14.0090    6.6260 O   0  0  0  0  0  0  0  0  0  0  0  0
   16.0130   16.9890    5.4400 O   0  0  0  0  0  0  0  0  0  0  0  0
   15.0990   15.8800    5.4720 C   0  0  0  0  0  0  0  0  0  0  0  0
   14.8830   15.3690    4.0440 C   0  0  0  0  0  0  0  0  0  0  0  0
   13.5900   14.5700    3.8890 C   0  0  0  0  0  0  0  0  0  0  0  0
   12.2870   14.9860    4.1180 C   0  0  0  0  0  0  0  0  0  0  0  0
   11.2550   14.0710    3.8990 C   0  0  0  0  0  0  0  0  0  0  0  0
   11.5320   12.7690    3.4550 C   0  0  0  0  0  0  0  0  0  0  0  0
   12.8480   12.3570    3.2180 C   0  0  0  0  0  0  0  0  0  0  0  0
   13.8730   13.2630    3.4350 C   0  0  0  0  0  0  0  0  0  0  0  0
   15.3040   13.1220    3.2730 C   0  0  0  0  0  0  0  0  0  0  0  0
   15.9280   14.3400    3.6230 C   0  0  0  0  0  0  0  0  0  0  0  0
   17.3040   14.4940    3.5420 C   0  0  0  0  0  0  0  0  0  0  0  0
   18.0650   13.4030    3.1190 C   0  0  0  0  0  0  0  0  0  0  0  0
   17.4500   12.1870    2.7790 C   0  0  0  0  0  0  0  0  0  0  0  0
   16.0600   12.0400    2.8530 C   0  0  0  0  0  0  0  0  0  0  0  0
   17.8624   18.2636    4.8375 H   0  0  0  0  0  0  0  0  0  0  0  0
   19.9023   18.4619    6.1681 H   0  0  0  0  0  0  0  0  0  0  0  0
   19.6071   16.7440    6.7275 H   0  0  0  0  0  0  0  0  0  0  0  0
   22.0743   17.7362    5.9462 H   0  0  0  0  0  0  0  0  0  0  0  0
   22.5861   16.9297    4.3984 H   0  0  0  0  0  0  0  0  0  0  0  0
   21.1335   19.5987    4.6074 H   0  0  0  0  0  0  0  0  0  0  0  0
   22.9084   19.3612    4.3184 H   0  0  0  0  0  0  0  0  0  0  0  0
   21.1231   19.7095    2.3276 H   0  0  0  0  0  0  0  0  0  0  0  0
   22.6336   18.6909    2.1908 H   0  0  0  0  0  0  0  0  0  0  0  0
   20.2824   17.7901    1.3600 H   0  0  0  0  0  0  0  0  0  0  0  0
   21.4971   16.7270    2.1853 H   0  0  0  0  0  0  0  0  0  0  0  0
   19.1290   18.1051    3.5167 H   0  0  0  0  0  0  0  0  0  0  0  0
   19.2570   16.3453    3.0509 H   0  0  0  0  0  0  0  0  0  0  0  0
   19.8071   14.8775    4.4048 H   0  0  0  0  0  0  0  0  0  0  0  0
   21.6286   15.1425    4.6511 H   0  0  0  0  0  0  0  0  0  0  0  0
   15.5186   15.0743    6.0923 H   0  0  0  0  0  0  0  0  0  0  0  0
   14.1385   16.2028    5.9000 H   0  0  0  0  0  0  0  0  0  0  0  0
   14.9049   16.2944    3.4497 H   0  0  0  0  0  0  0  0  0  0  0  0
   12.0723   16.0083    4.4626 H   0  0  0  0  0  0  0  0  0  0  0  0
   10.2127   14.3745    4.0766 H   0  0  0  0  0  0  0  0  0  0  0  0
   10.7042   12.0634    3.2912 H   0  0  0  0  0  0  0  0  0  0  0  0
   13.0636   11.3369    2.8674 H   0  0  0  0  0  0  0  0  0  0  0  0
   17.7823   15.4493    3.8038 H   0  0  0  0  0  0  0  0  0  0  0  0
   19.1589   13.4967    3.0512 H   0  0  0  0  0  0  0  0  0  0  0  0
   18.0688   11.3390    2.4503 H   0  0  0  0  0  0  0  0  0  0  0  0
   15.5794   11.0878    2.5840 H   0  0  0  0  0  0  0  0  0  0  0  0
  2  1  1  0
  3  2  2  0
  4  1  1  0
  5  4  1  0
  6  5  1  0
  7  6  1  0
  8  7  1  0
  9  8  1  0
 10  9  1  0
 10  5  1  0
 11  5  1  0
 13 11  1  0
 13 12  1  0
 14 13  2  0
 15  2  1  0
 16 15  1  0
 17 16  1  0
 18 17  1  0
 19 18  2  0
 20 19  1  0
 21 20  2  0
 22 21  1  0
 23 22  2  0
 23 18  1  0
 24 23  1  0
 25 24  2  0
 25 17  1  0
 26 25  1  0
 27 26  2  0
 28 27  1  0
 29 24  1  0
 29 28  2  0
  1 30  1  0
  4 31  1  0
  4 32  1  0
  6 33  1  0
  6 34  1  0
  7 35  1  0
  7 36  1  0
  8 37  1  0
  8 38  1  0
  9 39  1  0
  9 40  1  0
 10 41  1  0
 10 42  1  0
 11 43  1  0
 11 44  1  0
 16 45  1  0
 16 46  1  0
 17 47  1  0
 19 48  1  0
 20 49  1  0
 21 50  1  0
 22 51  1  0
 26 52  1  0
 27 53  1  0
 28 54  1  0
 29 55  1  0
M  CHG  1  12  -1
M  END
$$$$
=
     RDKit          3D

 42 44  0  0  0  0  0  0  0  0999 V2000
   28.4070   25.1530   12.9170 N   0  0  0  0  0  0  0  0  0  0  0  0
   28.3460   23.7650   12.4840 C   0  0  0  0  0  0  0  0  0  0  0  0
   27.9770   23.6530   11.0170 C   0  0  0  0  0  0  0  0  0  0  0  0
   26.4740   23.5860   10.8460 C   0  0  0  0  0  0  0  0  0  0  0  0
   25.6890   24.5950   11.5210 N   0  0  0  0  0  0  0  0  0  0  0  0
   26.0700   25.6500   12.3100 C   0  0  0  0  0  0  0  0  0  0  0  0
   27.3740   26.0780   12.7670 C   0  0  0  0  0  0  0  0  0  0  0  0
   27.5770   27.2540   13.0780 O   0  0  0  0  0  0  0  0  0  0  0  0
   24.8790   26.3080   12.5860 C   0  0  0  0  0  0  0  0  0  0  0  0
   23.8460   25.5490   11.9930 C   0  0  0  0  0  0  0  0  0  0  0  0
   24.3570   24.4860   11.3500 N   0  0  0  0  0  0  0  0  0  0  0  0
   22.2860   25.9620   12.1290 C   0  0  0  0  0  0  0  0  0  0  0  0
   21.9710   27.1090   11.6690 O   0  0  0  0  0  0  0  0  0  0  0  0
   21.4940   25.1320   12.6790 O   0  0  0  0  0  1  0  0  0  0  0  0
   29.6760   25.6300   13.4840 C   0  0  0  0  0  0  0  0  0  0  0  0
   30.4770   23.7290   14.7360 O   0  0  0  0  0  0  0  0  0  0  0  0
   30.0670   24.8970   14.7870 C   0  0  0  0  0  0  0  0  0  0  0  0
   29.7500   25.4940   16.0140 N   0  0  0  0  0  0  0  0  0  0  0  0
   29.7020   24.6320   17.1920 C   0  0  0  0  0  0  0  0  0  0  0  0
   29.5430   26.8850   16.2310 C   0  0  0  0  0  0  0  0  0  0  0  0
   28.3040   27.3740   16.6580 C   0  0  0  0  0  0  0  0  0  0  0  0
   28.0990   28.7450   16.8370 C   0  0  0  0  0  0  0  0  0  0  0  0
   29.1260   29.6460   16.5710 C   0  0  0  0  0  0  0  0  0  0  0  0
   30.3550   29.1770   16.1130 C   0  0  0  0  0  0  0  0  0  0  0  0
   30.5580   27.8050   15.9340 C   0  0  0  0  0  0  0  0  0  0  0  0
   29.3297   23.2985   12.6412 H   0  0  0  0  0  0  0  0  0  0  0  0
   27.5702   23.2546   13.0737 H   0  0  0  0  0  0  0  0  0  0  0  0
   28.3626   24.5320   10.4797 H   0  0  0  0  0  0  0  0  0  0  0  0
   28.4203   22.7320   10.6105 H   0  0  0  0  0  0  0  0  0  0  0  0
   26.2591   23.6638    9.7700 H   0  0  0  0  0  0  0  0  0  0  0  0
   26.1766   22.6350   11.3120 H   0  0  0  0  0  0  0  0  0  0  0  0
   24.7623   27.2411   13.1568 H   0  0  0  0  0  0  0  0  0  0  0  0
   30.4725   25.4744   12.7414 H   0  0  0  0  0  0  0  0  0  0  0  0
   29.5475   26.6943   13.7304 H   0  0  0  0  0  0  0  0  0  0  0  0
   29.7365   25.2508   18.1008 H   0  0  0  0  0  0  0  0  0  0  0  0
   28.7699   24.0479   17.1812 H   0  0  0  0  0  0  0  0  0  0  0  0
   30.5635   23.9481   17.1812 H   0  0  0  0  0  0  0  0  0  0  0  0
   27.4811   26.6712   16.8553 H   0  0  0  0  0  0  0  0  0  0  0  0
   27.1238   29.1127   17.1889 H   0  0  0  0  0  0  0  0  0  0  0  0
   28.9677   30.7240   16.7219 H   0  0  0  0  0  0  0  0  0  0  0  0
   31.1663   29.8862   15.8920 H   0  0  0  0  0  0  0  0  0  0  0  0
   31.5256   27.4435   15.5557 H   0  0  0  0  0  0  0  0  0  0  0  0
  2  1  1  0
  3  2  1  0
  4  3  1  0
  5  4  1  0
  6  5  1  0
  7  6  1  0
  7  1  1  0
  8  7  2  0
  9  6  2  0
 10  9  1  0
 11 10  2  0
 11  5  1  0
 12 10  1  0
 13 12  2  0
 14 12  1  0
 15  1  1  0
 17 16  2  0
 17 15  1  0
 18 17  1  0
 19 18  1  0
 20 18  1  0
 21 20  2  0
 22 21  1  0
 23 22  2  0
 24 23  1  0
 25 20  1  0
 25 24  2  0
  2 26  1  0
  2 27  1  0
  3 28  1  0
  3 29  1  0
  4 30  1  0
  4 31  1  0
  9 32  1  0
 15 33  1  0
 15 34  1  0
 19 35  1  0
 19 36  1  0
 19 37  1  0
 21 38  1  0
 22 39  1  0
 23 40  1  0
 24 41  1  0
 25 42  1  0
M  CHG  1  14  -1
M  END
$$$$
=
     RDKit          3D

 21 21  0  0  0  0  0  0  0  0999 V2000
   17.6860   15.7170    4.2560 C   0  0  0  0  0  0  0  0  0  0  0  0
   16.9650   16.1250    5.3870 C   0  0  0  0  0  0  0  0  0  0  0  0
   17.3370   17.2690    6.0860 C   0  0  0  0  0  0  0  0  0  0  0  0
   18.4220   17.9920    5.6260 C   0  0  0  0  0  0  0  0  0  0  0  0
   19.1400   17.6590    4.5350 N   0  0  0  0  0  0  0  0  0  0  0  0
   18.7570   16.5340    3.8700 C   0  0  0  0  0  0  0  0  0  0  0  0
   16.0490   13.9970    3.4690 C   0  0  0  0  0  0  0  0  0  0  0  0
   17.2840   14.5270    3.4840 C   0  0  0  0  0  0  0  0  0  0  0  0
   14.4540   12.5400    2.4710 O   0  0  0  0  0  1  0  0  0  0  0  0
   15.6830   12.7660    2.6380 C   0  0  0  0  0  0  0  0  0  0  0  0
   16.6890   12.1190    2.2270 O   0  0  0  0  0  0  0  0  0  0  0  0
   19.4700   16.1680    2.7410 O   0  0  0  0  0  0  0  0  0  0  0  0
   19.8150   17.2620    1.9030 C   0  0  0  0  0  0  0  0  0  0  0  0
   16.0990   15.5365    5.7242 H   0  0  0  0  0  0  0  0  0  0  0  0
   16.7828   17.5896    6.9805 H   0  0  0  0  0  0  0  0  0  0  0  0
   18.7169   18.8930    6.1838 H   0  0  0  0  0  0  0  0  0  0  0  0
   15.2668   14.4694    4.0814 H   0  0  0  0  0  0  0  0  0  0  0  0
   18.0547   14.0347    2.8728 H   0  0  0  0  0  0  0  0  0  0  0  0
   20.0880   18.1278    2.5241 H   0  0  0  0  0  0  0  0  0  0  0  0
   20.6686   16.9825    1.2680 H   0  0  0  0  0  0  0  0  0  0  0  0
   18.9555   17.5228    1.2680 H   0  0  0  0  0  0  0  0  0  0  0  0
  2  1  2  0
  3  2  1  0
  4  3  2  0
  5  4  1  0
  6  1  1  0
  6  5  2  0
  8  7  2  0
  8  1  1  0
 10  9  1  0
 10  7  1  0
 11 10  2  0
 12  6  1  0
 13 12  1  0
  2 14  1  0
  3 15  1  0
  4 16  1  0
  7 17  1  0
  8 18  1  0
 13 19  1  0
 13 20  1  0
 13 21  1  0
M  CHG  1   9  -1
M  END
$$$$
=
     RDKit          3D

 24 25  0  0  0  0  0  0  0  0999 V2000
   18.0840   16.2560    4.3660 C   0  0  0  0  0  0  0  0  0  0  0  0
   17.1680   16.7510    5.3080 C   0  0  0  0  0  0  0  0  0  0  0  0
   15.8460   16.2880    5.3290 C   0  0  0  0  0  0  0  0  0  0  0  0
   15.4150   15.3130    4.4200 C   0  0  0  0  0  0  0  0  0  0  0  0
   16.3310   14.8190    3.4830 C   0  0  0  0  0  0  0  0  0  0  0  0
   17.6530   15.2800    3.4620 C   0  0  0  0  0  0  0  0  0  0  0  0
   20.4650   16.4610    5.2500 C   0  0  0  0  0  0  0  0  0  0  0  0
   21.5000   17.2930    4.8890 C   0  0  0  0  0  0  0  0  0  0  0  0
   21.1900   18.0050    3.7630 N   0  0  0  0  0  0  0  0  0  0  0  0
   19.9690   17.6210    3.4670 C   0  0  0  0  0  0  0  0  0  0  0  0
   19.4380   16.7120    4.3710 N   0  0  0  0  0  0  0  0  0  0  0  0
   21.3980   15.7000    7.3090 O   0  0  0  0  0  1  0  0  0  0  0  0
   20.5880   15.4170    6.3780 C   0  0  0  0  0  0  0  0  0  0  0  0
   19.8870   14.3700    6.2660 O   0  0  0  0  0  0  0  0  0  0  0  0
   13.9860   14.8370    4.4280 C   0  0  0  0  0  0  0  0  0  0  0  0
   13.0920   15.8480    4.2440 F   0  0  0  0  0  0  0  0  0  0  0  0
   13.7090   13.9130    3.4650 F   0  0  0  0  0  0  0  0  0  0  0  0
   13.6330   14.2480    5.6080 F   0  0  0  0  0  0  0  0  0  0  0  0
   17.4914   17.5094    6.0362 H   0  0  0  0  0  0  0  0  0  0  0  0
   15.1388   16.6943    6.0671 H   0  0  0  0  0  0  0  0  0  0  0  0
   16.0083   14.0601    2.7551 H   0  0  0  0  0  0  0  0  0  0  0  0
   18.3604   14.8699    2.7262 H   0  0  0  0  0  0  0  0  0  0  0  0
   22.4518   17.3747    5.4344 H   0  0  0  0  0  0  0  0  0  0  0  0
   19.4198   17.9854    2.5863 H   0  0  0  0  0  0  0  0  0  0  0  0
  2  1  2  0
  3  2  1  0
  4  3  2  0
  5  4  1  0
  6  5  2  0
  6  1  1  0
  8  7  2  0
  9  8  1  0
 10  9  2  0
 11  1  1  0
 11 10  1  0
 11  7  1  0
 13 12  1  0
 13  7  1  0
 14 13  2  0
 15  4  1  0
 16 15  1  0
 17 15  1  0
 18 15  1  0
  2 19  1  0
  3 20  1  0
  5 21  1  0
  6 22  1  0
  8 23  1  0
 10 24  1  0
M  CHG  1  12  -1
M  END
$$$$
=
     RDKit          3D

 32 33  0  0  0  0  0  0  0  0999 V2000
   29.9160   26.3920   15.6530 C   0  0  0  0  0  0  0  0  0  0  0  0
   30.6490   25.3400   16.2520 C   0  0  0  0  0  0  0  0  0  0  0  0
   30.6770   24.0560   15.7290 C   0  0  0  0  0  0  0  0  0  0  0  0
   29.9910   23.7750   14.5550 C   0  0  0  0  0  0  0  0  0  0  0  0
   29.2450   24.7860   13.9080 C   0  0  0  0  0  0  0  0  0  0  0  0
   29.1790   26.0760   14.4750 C   0  0  0  0  0  0  0  0  0  0  0  0
   28.3180   26.8120   13.6530 N   0  0  0  0  0  0  0  0  0  0  0  0
   27.9800   26.0550   12.5530 C   0  0  0  0  0  0  0  0  0  0  0  0
   28.4990   24.7920   12.6900 C   0  0  0  0  0  0  0  0  0  0  0  0
   29.6770   27.7550   17.7460 C   0  0  0  0  0  0  0  0  0  0  0  0
   30.0810   27.7630   16.2780 C   0  0  0  0  0  0  0  0  0  0  0  0
   28.3160   23.7030   11.7530 C   0  0  0  0  0  0  0  0  0  0  0  0
   28.0200   23.8330   10.5680 O   0  0  0  0  0  0  0  0  0  0  0  0
   27.7110   28.1090   13.9520 C   0  0  2  0  0  0  0  0  0  0  0  0
   28.7010   29.2680   14.1270 C   0  0  0  0  0  0  0  0  0  0  0  0
   26.8500   28.0920   15.2140 C   0  0  0  0  0  0  0  0  0  0  0  0
   26.1540   27.0420   15.3640 O   0  0  0  0  0  0  0  0  0  0  0  0
   26.8750   29.1240   15.9430 O   0  0  0  0  0  1  0  0  0  0  0  0
   31.2193   25.5492   17.1691 H   0  0  0  0  0  0  0  0  0  0  0  0
   31.2406   23.2630   16.2423 H   0  0  0  0  0  0  0  0  0  0  0  0
   30.0283   22.7623   14.1272 H   0  0  0  0  0  0  0  0  0  0  0  0
   27.3860   26.4082   11.6972 H   0  0  0  0  0  0  0  0  0  0  0  0
   30.5794   27.7729   18.3747 H   0  0  0  0  0  0  0  0  0  0  0  0
   29.0621   28.6411   17.9619 H   0  0  0  0  0  0  0  0  0  0  0  0
   29.0976   26.8452   17.9619 H   0  0  0  0  0  0  0  0  0  0  0  0
   31.1347   28.0686   16.1982 H   0  0  0  0  0  0  0  0  0  0  0  0
   29.4290   28.4689   15.7427 H   0  0  0  0  0  0  0  0  0  0  0  0
   28.4528   22.6795   12.1321 H   0  0  0  0  0  0  0  0  0  0  0  0
   27.1033   28.2831   13.0518 H   0  0  0  0  0  0  0  0  0  0  0  0
   28.8608   29.4550   15.1991 H   0  0  0  0  0  0  0  0  0  0  0  0
   29.6589   29.0066   13.6537 H   0  0  0  0  0  0  0  0  0  0  0  0
   28.2931   30.1733   13.6537 H   0  0  0  0  0  0  0  0  0  0  0  0
  2  1  2  0
  3  2  1  0
  4  3  2  0
  5  4  1  0
  6  5  2  0
  6  1  1  0
  7  6  1  0
  8  7  1  0
  9  8  2  0
  9  5  1  0
 11  1  1  0
 11 10  1  0
 12  9  1  0
 13 12  2  0
 14  7  1  0
 15 14  1  0
 16 14  1  0
 17 16  2  0
 18 16  1  0
  2 19  1  0
  3 20  1  0
  4 21  1  0
  8 22  1  0
 10 23  1  0
 10 24  1  0
 10 25  1  0
 11 26  1  0
 11 27  1  0
 12 28  1  0
 14 29  1  6
 15 30  1  0
 15 31  1  0
 15 32  1  0
M  CHG  1  18  -1
M  END
$$$$
=
     RDKit          3D

 42 42  0  0  0  0  0  0  0  0999 V2000
   14.4250   15.9130    4.3140 C   0  0  0  0  0  0  0  0  0  0  0  0
   15.1570   14.5760    4.3770 C   0  0  1  0  0  0  0  0  0  0  0  0
   14.4240   13.5100    3.5410 C   0  0  0  0  0  0  0  0  0  0  0  0
   15.0250   12.6130    2.9480 O   0  0  0  0  0  0  0  0  0  0  0  0
   13.0620   13.6430    3.5070 N   0  0  0  0  0  0  0  0  0  0  0  0
   12.2040   12.7240    2.7800 C   0  0  0  0  0  0  0  0  0  0  0  0
   10.7690   12.8900    3.2780 C   0  0  0  0  0  0  0  0  0  0  0  0
    9.8140   12.3970    2.6770 O   0  0  0  0  0  0  0  0  0  0  0  0
   10.6640   13.6270    4.4200 N   0  0  0  0  0  0  0  0  0  0  0  0
    9.4070   13.9300    5.1100 C   0  0  0  0  0  0  0  0  0  0  0  0
    9.5370   13.8150    6.6510 C   0  0  0  0  0  0  0  0  0  0  0  0
    8.5200   14.2360    7.2880 O   0  0  0  0  0  0  0  0  0  0  0  0
   10.6190   13.3270    7.0770 O   0  0  0  0  0  1  0  0  0  0  0  0
   16.5110   14.6970    3.8630 N   0  0  0  0  0  0  0  0  0  0  0  0
   17.5330   15.2500    4.5610 C   0  0  0  0  0  0  0  0  0  0  0  0
   17.4340   15.7790    5.6590 O   0  0  0  0  0  0  0  0  0  0  0  0
   18.6790   15.1240    3.8550 O   0  0  0  0  0  0  0  0  0  0  0  0
   19.1730   16.3630    3.3430 C   0  0  0  0  0  0  0  0  0  0  0  0
   20.3250   16.8240    4.2020 C   0  0  0  0  0  0  0  0  0  0  0  0
   20.7810   18.1490    4.1320 C   0  0  0  0  0  0  0  0  0  0  0  0
   21.8350   18.5810    4.9360 C   0  0  0  0  0  0  0  0  0  0  0  0
   22.4420   17.6970    5.8260 C   0  0  0  0  0  0  0  0  0  0  0  0
   21.9950   16.3790    5.9090 C   0  0  0  0  0  0  0  0  0  0  0  0
   20.9420   15.9440    5.1050 C   0  0  0  0  0  0  0  0  0  0  0  0
   14.2285   16.2719    5.3351 H   0  0  0  0  0  0  0  0  0  0  0  0
   15.0471   16.6469    3.7808 H   0  0  0  0  0  0  0  0  0  0  0  0
   13.4715   15.7842    3.7808 H   0  0  0  0  0  0  0  0  0  0  0  0
   15.1841   14.2743    5.4345 H   0  0  0  0  0  0  0  0  0  0  0  0
   12.6286   14.4258    4.0172 H   0  0  0  0  0  0  0  0  0  0  0  0
   12.2500   12.9482    1.7041 H   0  0  0  0  0  0  0  0  0  0  0  0
   12.5394   11.6896    2.9459 H   0  0  0  0  0  0  0  0  0  0  0  0
   11.5333   13.9988    4.8286 H   0  0  0  0  0  0  0  0  0  0  0  0
    9.1032   14.9564    4.8566 H   0  0  0  0  0  0  0  0  0  0  0  0
    8.6575   13.1953    4.7805 H   0  0  0  0  0  0  0  0  0  0  0  0
   16.7049   14.3428    2.9155 H   0  0  0  0  0  0  0  0  0  0  0  0
   19.5175   16.2233    2.3077 H   0  0  0  0  0  0  0  0  0  0  0  0
   18.3726   17.1174    3.3579 H   0  0  0  0  0  0  0  0  0  0  0  0
   20.3024   18.8538    3.4361 H   0  0  0  0  0  0  0  0  0  0  0  0
   22.1878   19.6207    4.8677 H   0  0  0  0  0  0  0  0  0  0  0  0
   23.2722   18.0384    6.4618 H   0  0  0  0  0  0  0  0  0  0  0  0
   22.4743   15.6804    6.6106 H   0  0  0  0  0  0  0  0  0  0  0  0
   20.5923   14.9037    5.1789 H   0  0  0  0  0  0  0  0  0  0  0  0
  2  1  1  0
  3  2  1  0
  4  3  2  0
  5  3  1  0
  6  5  1  0
  7  6  1  0
  8  7  2  0
  9  7  1  0
 10  9  1  0
 11 10  1  0
 12 11  2  0
 13 11  1  0
 14  2  1  0
 15 14  1  0
 16 15  2  0
 17 15  1  0
 18 17  1  0
 19 18  1  0
 20 19  2  0
 21 20  1  0
 22 21  2  0
 23 22  1  0
 24 19  1  0
 24 23  2  0
  1 25  1  0
  1 26  1  0
  1 27  1  0
  2 28  1  1
  5 29  1  0
  6 30  1  0
  6 31  1  0
  9 32  1  0
 10 33  1  0
 10 34  1  0
 14 35  1  0
 18 36  1  0
 18 37  1  0
 20 38  1  0
 21 39  1  0
 22 40  1  0
 23 41  1  0
 24 42  1  0
M  CHG  1  13  -1
M  END
$$$$
=
     RDKit          3D

 55 59  0  0  0  0  0  0  0  0999 V2000
   25.4520   26.5210   14.6790 C   0  0  0  0  0  0  0  0  0  0  0  0
   24.1230   26.1260   14.3910 C   0  0  0  0  0  0  0  0  0  0  0  0
   23.0270   26.3250   15.4130 C   0  0  0  0  0  0  0  0  0  0  0  0
   21.6030   26.2490   14.8200 C   0  0  1  0  0  0  0  0  0  0  0  0
   21.5240   24.9840   13.9450 C   0  0  0  0  0  0  0  0  0  0  0  0
   22.5120   25.0440   12.8010 C   0  0  0  0  0  0  0  0  0  0  0  0
   22.2170   24.7110   11.5260 C   0  0  0  0  0  0  0  0  0  0  0  0
   23.8720   25.5300   13.1570 C   0  0  0  0  0  0  0  0  0  0  0  0
   24.8330   25.3430   12.2190 N   0  0  0  0  0  0  0  0  0  0  0  0
   26.0870   25.7330   12.4890 C   0  0  0  0  0  0  0  0  0  0  0  0
   26.4650   26.3300   13.7080 C   0  0  0  0  0  0  0  0  0  0  0  0
   27.8230   26.6900   13.8920 C   0  0  0  0  0  0  0  0  0  0  0  0
   28.7770   26.4720   12.8970 C   0  0  0  0  0  0  0  0  0  0  0  0
   28.3910   25.8860   11.7020 C   0  0  0  0  0  0  0  0  0  0  0  0
   27.0540   25.5250   11.5130 C   0  0  0  0  0  0  0  0  0  0  0  0
   20.9180   24.2190   11.0600 C   0  0  0  0  0  0  0  0  0  0  0  0
   20.6620   22.8320   11.0640 C   0  0  0  0  0  0  0  0  0  0  0  0
   19.4350   22.3310   10.6190 C   0  0  0  0  0  0  0  0  0  0  0  0
   18.4960   23.2390   10.1790 C   0  0  0  0  0  0  0  0  0  0  0  0
   18.7420   24.5930   10.1750 C   0  0  0  0  0  0  0  0  0  0  0  0
   19.9410   25.1160   10.6100 C   0  0  0  0  0  0  0  0  0  0  0  0
   17.6860   25.3100    9.7050 O   0  0  0  0  0  0  0  0  0  0  0  0
   16.7530   24.2520    9.4070 C   0  0  0  0  0  0  0  0  0  0  0  0
   17.2560   22.9350    9.7110 O   0  0  0  0  0  0  0  0  0  0  0  0
   20.4610   26.3490   15.8990 C   0  0  0  0  0  0  0  0  0  0  0  0
   20.2380   27.7880   16.3990 C   0  0  0  0  0  0  0  0  0  0  0  0
   19.1270   25.8250   15.3250 C   0  0  0  0  0  0  0  0  0  0  0  0
   20.8080   25.4640   17.1190 C   0  0  0  0  0  0  0  0  0  0  0  0
   25.7670   28.3970   16.0820 O   0  0  0  0  0  1  0  0  0  0  0  0
   25.7790   27.1290   16.0150 C   0  0  0  0  0  0  0  0  0  0  0  0
   26.0500   26.3270   16.9610 O   0  0  0  0  0  0  0  0  0  0  0  0
   23.1245   25.5454   16.1829 H   0  0  0  0  0  0  0  0  0  0  0  0
   23.1504   27.3382   15.8232 H   0  0  0  0  0  0  0  0  0  0  0  0
   21.4213   27.1347   14.1935 H   0  0  0  0  0  0  0  0  0  0  0  0
   21.7480   24.1042   14.5661 H   0  0  0  0  0  0  0  0  0  0  0  0
   20.5099   24.9157   13.5245 H   0  0  0  0  0  0  0  0  0  0  0  0
   23.0159   24.8177   10.7774 H   0  0  0  0  0  0  0  0  0  0  0  0
   28.1325   27.1520   14.8411 H   0  0  0  0  0  0  0  0  0  0  0  0
   29.8254   26.7626   13.0598 H   0  0  0  0  0  0  0  0  0  0  0  0
   29.1311   25.7063   10.9083 H   0  0  0  0  0  0  0  0  0  0  0  0
   26.7576   25.0611   10.5606 H   0  0  0  0  0  0  0  0  0  0  0  0
   21.4362   22.1369   11.4211 H   0  0  0  0  0  0  0  0  0  0  0  0
   19.2265   21.2509   10.6200 H   0  0  0  0  0  0  0  0  0  0  0  0
   20.1241   26.2006   10.6039 H   0  0  0  0  0  0  0  0  0  0  0  0
   15.8385   24.4191    9.9950 H   0  0  0  0  0  0  0  0  0  0  0  0
   16.5657   24.2832    8.3235 H   0  0  0  0  0  0  0  0  0  0  0  0
   20.2365   27.7979   17.4990 H   0  0  0  0  0  0  0  0  0  0  0  0
   21.0467   28.4347   16.0276 H   0  0  0  0  0  0  0  0  0  0  0  0
   19.2716   28.1596   16.0276 H   0  0  0  0  0  0  0  0  0  0  0  0
   18.4513   25.5596   16.1514 H   0  0  0  0  0  0  0  0  0  0  0  0
   18.6613   26.6070   14.7073 H   0  0  0  0  0  0  0  0  0  0  0  0
   19.3180   24.9351   14.7073 H   0  0  0  0  0  0  0  0  0  0  0  0
   20.5916   26.0158   18.0457 H   0  0  0  0  0  0  0  0  0  0  0  0
   20.2034   24.5455   17.0895 H   0  0  0  0  0  0  0  0  0  0  0  0
   21.8757   25.2012   17.0895 H   0  0  0  0  0  0  0  0  0  0  0  0
  2  1  2  0
  3  2  1  0
  4  3  1  0
  5  4  1  0
  6  5  1  0
  7  6  2  0
  8  6  1  0
  8  2  1  0
  9  8  2  0
 10  9  1  0
 11 10  2  0
 11  1  1  0
 12 11  1  0
 13 12  2  0
 14 13  1  0
 15 10  1  0
 15 14  2  0
 16  7  1  0
 17 16  2  0
 18 17  1  0
 19 18  2  0
 20 19  1  0
 21 20  2  0
 21 16  1  0
 22 20  1  0
 23 22  1  0
 24 23  1  0
 24 19  1  0
 25  4  1  0
 26 25  1  0
 27 25  1  0
 28 25  1  0
 30  1  1  0
 30 29  1  0
 31 30  2  0
  3 32  1  0
  3 33  1  0
  4 34  1  6
  5 35  1  0
  5 36  1  0
  7 37  1  0
 12 38  1  0
 13 39  1  0
 14 40  1  0
 15 41  1  0
 17 42  1  0
 18 43  1  0
 21 44  1  0
 23 45  1  0
 23 46  1  0
 26 47  1  0
 26 48  1  0
 26 49  1  0
 27 50  1  0
 27 51  1  0
 27 52  1  0
 28 53  1  0
 28 54  1  0
 28 55  1  0
M  CHG  1  29  -1
M  END
$$$$
=
     RDKit          3D

 28 29  0  0  0  0  0  0  0  0999 V2000
   18.5050   14.5500    3.9490 C   0  0  0  0  0  0  0  0  0  0  0  0
   18.9560   13.6510    3.2440 O   0  0  0  0  0  0  0  0  0  0  0  0
   17.1820   14.7910    4.2050 N   0  0  0  0  0  0  0  0  0  0  0  0
   16.0830   14.1130    3.7530 C   0  0  0  0  0  0  0  0  0  0  0  0
   16.1690   12.7600    2.7260 S   0  0  0  0  0  0  0  0  0  0  0  0
   14.4600   12.6520    2.7390 C   0  0  0  0  0  0  0  0  0  0  0  0
   13.9290   13.6570    3.5280 C   0  0  0  0  0  0  0  0  0  0  0  0
   14.8820   14.4960    4.1110 N   0  0  0  0  0  0  0  0  0  0  0  0
   19.7520   16.8140    4.1840 C   0  0  0  0  0  0  0  0  0  0  0  0
   20.6950   17.5840    4.8840 C   0  0  0  0  0  0  0  0  0  0  0  0
   21.3730   17.0590    5.9870 C   0  0  0  0  0  0  0  0  0  0  0  0
   21.1210   15.7590    6.4050 C   0  0  0  0  0  0  0  0  0  0  0  0
   20.1870   14.9830    5.7200 C   0  0  0  0  0  0  0  0  0  0  0  0
   19.4900   15.4910    4.6060 C   0  0  0  0  0  0  0  0  0  0  0  0
   19.7570   17.4720    1.8720 C   0  0  0  0  0  0  0  0  0  0  0  0
   19.0620   17.2860    3.0980 O   0  0  0  0  0  0  0  0  0  0  0  0
   12.3400   13.8030    3.7270 C   0  0  0  0  0  0  0  0  0  0  0  0
   11.9300   14.7310    4.4900 O   0  0  0  0  0  0  0  0  0  0  0  0
   11.6190   12.9660    3.0950 O   0  0  0  0  0  1  0  0  0  0  0  0
   16.9873   15.5923    4.8223 H   0  0  0  0  0  0  0  0  0  0  0  0
   13.8713   11.8953    2.1997 H   0  0  0  0  0  0  0  0  0  0  0  0
   20.9026   18.6143    4.5595 H   0  0  0  0  0  0  0  0  0  0  0  0
   22.1075   17.6763    6.5251 H   0  0  0  0  0  0  0  0  0  0  0  0
   21.6555   15.3436    7.2720 H   0  0  0  0  0  0  0  0  0  0  0  0
   19.9905   13.9541    6.0558 H   0  0  0  0  0  0  0  0  0  0  0  0
   20.8003   17.7512    2.0807 H   0  0  0  0  0  0  0  0  0  0  0  0
   19.7364   16.5367    1.2933 H   0  0  0  0  0  0  0  0  0  0  0  0
   19.2721   18.2720    1.2933 H   0  0  0  0  0  0  0  0  0  0  0  0
  2  1  2  0
  3  1  1  0
  4  3  1  0
  5  4  1  0
  6  5  1  0
  7  6  2  0
  8  7  1  0
  8  4  2  0
 10  9  2  0
 11 10  1  0
 12 11  2  0
 13 12  1  0
 14  1  1  0
 14 13  2  0
 14  9  1  0
 16 15  1  0
 16  9  1  0
 17  7  1  0
 18 17  2  0
 19 17  1  0
  3 20  1  0
  6 21  1  0
 10 22  1  0
 11 23  1  0
 12 24  1  0
 13 25  1  0
 15 26  1  0
 15 27  1  0
 15 28  1  0
M  CHG  1  19  -1
M  END
$$$$
=
     RDKit          3D

 41 42  0  0  0  0  0  0  0  0999 V2000
   12.4630   13.5620    3.7800 C   0  0  0  0  0  0  0  0  0  0  0  0
   13.1980   12.6930    3.0690 N   0  0  0  0  0  0  0  0  0  0  0  0
   14.4470   13.1570    3.1960 N   0  0  0  0  0  0  0  0  0  0  0  0
   14.5620   14.2720    3.9730 C   0  0  0  0  0  0  0  0  0  0  0  0
   13.2760   14.5630    4.3720 C   0  0  0  0  0  0  0  0  0  0  0  0
   15.8650   14.9200    4.2520 C   0  0  0  0  0  0  0  0  0  0  0  0
   16.9650   14.2590    3.5480 N   0  0  0  0  0  0  0  0  0  0  0  0
   16.8400   12.8270    3.2790 C   0  0  0  0  0  0  0  0  0  0  0  0
   15.5540   12.5010    2.5370 C   0  0  0  0  0  0  0  0  0  0  0  0
   18.2260   14.8330    3.5190 C   0  0  0  0  0  0  0  0  0  0  0  0
   19.2250   14.2520    3.1160 O   0  0  0  0  0  0  0  0  0  0  0  0
   10.9790   13.4150    3.9060 C   0  0  0  0  0  0  0  0  0  0  0  0
   10.3900   14.3720    4.9320 C   0  0  0  0  0  0  0  0  0  0  0  0
    8.6650   12.9190    5.5880 O   0  0  0  0  0  1  0  0  0  0  0  0
    9.7180   13.4980    5.9770 C   0  0  0  0  0  0  0  0  0  0  0  0
   10.2980   13.4500    7.0970 O   0  0  0  0  0  0  0  0  0  0  0  0
   18.2190   16.1060    3.9910 O   0  0  0  0  0  0  0  0  0  0  0  0
   18.9700   16.4740    5.1760 C   0  0  0  0  0  0  0  0  0  0  0  0
   20.3160   17.1100    4.8090 C   0  0  0  0  0  0  0  0  0  0  0  0
   18.1020   17.5330    5.8710 C   0  0  0  0  0  0  0  0  0  0  0  0
   19.1370   15.2810    6.1240 C   0  0  0  0  0  0  0  0  0  0  0  0
   12.9489   15.3947    5.0133 H   0  0  0  0  0  0  0  0  0  0  0  0
   15.8162   15.9704    3.9290 H   0  0  0  0  0  0  0  0  0  0  0  0
   16.0582   14.8460    5.3324 H   0  0  0  0  0  0  0  0  0  0  0  0
   17.6954   12.5038    2.6675 H   0  0  0  0  0  0  0  0  0  0  0  0
   16.8209   12.2988    4.2437 H   0  0  0  0  0  0  0  0  0  0  0  0
   15.3924   11.4129    2.5410 H   0  0  0  0  0  0  0  0  0  0  0  0
   15.6271   12.8531    1.4974 H   0  0  0  0  0  0  0  0  0  0  0  0
   10.5189   13.6179    2.9277 H   0  0  0  0  0  0  0  0  0  0  0  0
   10.7694   12.3890    4.2429 H   0  0  0  0  0  0  0  0  0  0  0  0
   11.1853   14.9765    5.3925 H   0  0  0  0  0  0  0  0  0  0  0  0
    9.6771   15.0711    4.4704 H   0  0  0  0  0  0  0  0  0  0  0  0
   20.8623   17.3681    5.7282 H   0  0  0  0  0  0  0  0  0  0  0  0
   20.9094   16.3970    4.2178 H   0  0  0  0  0  0  0  0  0  0  0  0
   20.1420   18.0211    4.2178 H   0  0  0  0  0  0  0  0  0  0  0  0
   18.1923   17.4228    6.9617 H   0  0  0  0  0  0  0  0  0  0  0  0
   18.4406   18.5367    5.5746 H   0  0  0  0  0  0  0  0  0  0  0  0
   17.0513   17.3980    5.5746 H   0  0  0  0  0  0  0  0  0  0  0  0
   19.0880   15.6308    7.1657 H   0  0  0  0  0  0  0  0  0  0  0  0
   18.3319   14.5535    5.9433 H   0  0  0  0  0  0  0  0  0  0  0  0
   20.1109   14.8026    5.9433 H   0  0  0  0  0  0  0  0  0  0  0  0
  2  1  2  0
  3  2  1  0
  4  3  1  0
  5  4  2  0
  5  1  1  0
  6  4  1  0
  7  6  1  0
  8  7  1  0
  9  3  1  0
  9  8  1  0
 10  7  1  0
 11 10  2  0
 12  1  1  0
 13 12  1  0
 15 13  1  0
 15 14  1  0
 16 15  2  0
 17 10  1  0
 18 17  1  0
 19 18  1  0
 20 18  1  0
 21 18  1  0
  5 22  1  0
  6 23  1  0
  6 24  1  0
  8 25  1  0
  8 26  1  0
  9 27  1  0
  9 28  1  0
 12 29  1  0
 12 30  1  0
 13 31  1  0
 13 32  1  0
 19 33  1  0
 19 34  1  0
 19 35  1  0
 20 36  1  0
 20 37  1  0
 20 38  1  0
 21 39  1  0
 21 40  1  0
 21 41  1  0
M  CHG  1  14  -1
M  END
$$$$
=
     RDKit          3D

 26 26  0  0  0  0  0  0  0  0999 V2000
   19.3360   17.0080    4.9320 N   0  0  0  0  0  0  0  0  0  0  0  0
   19.3650   17.0730    3.5620 C   0  0  0  0  0  0  0  0  0  0  0  0
   20.1020   17.7490    2.8630 O   0  0  0  0  0  0  0  0  0  0  0  0
   18.4240   16.2230    3.0340 O   0  0  0  0  0  0  0  0  0  0  0  0
   18.0180   15.3280    4.0940 C   0  0  0  0  0  0  0  0  0  0  0  0
   18.2490   16.1750    5.3720 C   0  0  2  0  0  0  0  0  0  0  0  0
   17.0280   17.0200    5.7620 C   0  0  0  0  0  0  0  0  0  0  0  0
   16.5720   14.9030    3.8300 C   0  0  0  0  0  0  0  0  0  0  0  0
   18.9210   14.0820    4.0170 C   0  0  0  0  0  0  0  0  0  0  0  0
   18.6340   15.3490    6.4550 O   0  0  0  0  0  0  0  0  0  0  0  0
   20.3260   17.6660    5.8050 C   0  0  0  0  0  0  0  0  0  0  0  0
   21.5570   15.9710    6.9480 O   0  0  0  0  0  1  0  0  0  0  0  0
   21.6350   16.9070    6.1070 C   0  0  0  0  0  0  0  0  0  0  0  0
   22.6420   17.3180    5.4510 O   0  0  0  0  0  0  0  0  0  0  0  0
   16.9530   17.0719    6.8582 H   0  0  0  0  0  0  0  0  0  0  0  0
   17.1392   18.0353    5.3536 H   0  0  0  0  0  0  0  0  0  0  0  0
   16.1170   16.5582    5.3536 H   0  0  0  0  0  0  0  0  0  0  0  0
   16.0538   14.7507    4.7883 H   0  0  0  0  0  0  0  0  0  0  0  0
   16.0581   15.6881    3.2560 H   0  0  0  0  0  0  0  0  0  0  0  0
   16.5646   13.9647    3.2560 H   0  0  0  0  0  0  0  0  0  0  0  0
   19.1663   13.7435    5.0345 H   0  0  0  0  0  0  0  0  0  0  0  0
   18.3934   13.2794    3.4808 H   0  0  0  0  0  0  0  0  0  0  0  0
   19.8479   14.3335    3.4808 H   0  0  0  0  0  0  0  0  0  0  0  0
   18.4220   15.8037    7.3085 H   0  0  0  0  0  0  0  0  0  0  0  0
   20.6014   18.6187    5.3291 H   0  0  0  0  0  0  0  0  0  0  0  0
   19.8233   17.7506    6.7798 H   0  0  0  0  0  0  0  0  0  0  0  0
  2  1  1  0
  3  2  2  0
  4  2  1  0
  5  4  1  0
  6  5  1  0
  6  1  1  0
  7  6  1  0
  8  5  1  0
  9  5  1  0
  6 10  1  1
 11  1  1  0
 13 12  1  0
 13 11  1  0
 14 13  2  0
  7 15  1  0
  7 16  1  0
  7 17  1  0
  8 18  1  0
  8 19  1  0
  8 20  1  0
  9 21  1  0
  9 22  1  0
  9 23  1  0
 10 24  1  0
 11 25  1  0
 11 26  1  0
M  CHG  1  12  -1
M  END
$$$$
=
     RDKit          3D

 22 23  0  0  0  0  0  0  0  0999 V2000
   16.2340   14.1140    3.5850 C   0  0  0  0  0  0  0  0  0  0  0  0
   15.1900   14.8310    4.1820 C   0  0  0  0  0  0  0  0  0  0  0  0
   15.4570   15.9490    4.9640 C   0  0  0  0  0  0  0  0  0  0  0  0
   16.7750   16.3690    5.1590 C   0  0  0  0  0  0  0  0  0  0  0  0
   17.8570   15.6750    4.5910 C   0  0  0  0  0  0  0  0  0  0  0  0
   17.5610   14.5410    3.8120 C   0  0  0  0  0  0  0  0  0  0  0  0
   19.2130   16.1170    4.7720 N   0  0  0  0  0  0  0  0  0  0  0  0
   19.7660   17.1520    4.0350 C   0  0  0  0  0  0  0  0  0  0  0  0
   19.2450   17.8170    3.1410 O   0  0  0  0  0  0  0  0  0  0  0  0
   21.1900   17.4380    4.4240 C   0  0  0  0  0  0  0  0  0  0  0  0
   21.6740   16.1860    5.5960 S   0  0  0  0  0  0  0  0  0  0  0  0
   20.0350   15.5650    5.7360 C   0  0  0  0  0  0  0  0  0  0  0  0
   19.7680   14.8130    6.6560 O   0  0  0  0  0  0  0  0  0  0  0  0
   14.7200   12.7020    2.4120 O   0  0  0  0  0  1  0  0  0  0  0  0
   15.9390   12.9210    2.6980 C   0  0  0  0  0  0  0  0  0  0  0  0
   16.9330   12.2380    2.2960 O   0  0  0  0  0  0  0  0  0  0  0  0
   14.1497   14.5069    4.0310 H   0  0  0  0  0  0  0  0  0  0  0  0
   14.6292   16.5037    5.4299 H   0  0  0  0  0  0  0  0  0  0  0  0
   16.9701   17.2624    5.7704 H   0  0  0  0  0  0  0  0  0  0  0  0
   18.3885   13.9696    3.3662 H   0  0  0  0  0  0  0  0  0  0  0  0
   21.8393   17.3959    3.5370 H   0  0  0  0  0  0  0  0  0  0  0  0
   21.2819   18.4423    4.8633 H   0  0  0  0  0  0  0  0  0  0  0  0
  2  1  2  0
  3  2  1  0
  4  3  2  0
  5  4  1  0
  6  1  1  0
  6  5  2  0
  7  5  1  0
  8  7  1  0
  9  8  2  0
 10  8  1  0
 11 10  1  0
 12  7  1  0
 12 11  1  0
 13 12  2  0
 15 14  1  0
 15  1  1  0
 16 15  2  0
  2 17  1  0
  3 18  1  0
  4 19  1  0
  6 20  1  0
 10 21  1  0
 10 22  1  0
M  CHG  1  14  -1
M  END
$$$$
=
     RDKit          3D

 34 36  0  0  0  0  0  0  0  0999 V2000
   19.9560   15.4680    5.3960 C   0  0  2  0  0  0  0  0  0  0  0  0
   19.9350   15.8310    3.8990 C   0  0  0  0  0  0  0  0  0  0  0  0
   18.5250   15.8930    3.3100 C   0  0  0  0  0  0  0  0  0  0  0  0
   17.5990   14.9520    4.0680 C   0  0  1  0  0  0  0  0  0  0  0  0
   17.4420   15.3440    5.5370 C   0  0  1  0  0  0  0  0  0  0  0  0
   18.7090   15.9710    6.1220 C   0  0  0  0  0  0  0  0  0  0  0  0
   16.2590   16.3060    5.5560 C   0  0  0  0  0  0  0  0  0  0  0  0
   15.3130   15.7750    4.4980 C   0  0  1  0  0  0  0  0  0  0  0  0
   16.1930   15.0310    3.4990 N   0  0  2  0  0  4  0  0  0  0  0  0
   15.5450   13.6930    3.2290 C   0  0  0  0  0  0  0  0  0  0  0  0
   14.1260   13.8650    3.7340 C   0  0  0  0  0  0  0  0  0  0  0  0
   14.3140   14.7280    4.9670 C   0  0  0  0  0  0  0  0  0  0  0  0
   21.4360   15.7860    7.1940 O   0  0  0  0  0  1  0  0  0  0  0  0
   21.2750   16.0190    5.9650 C   0  0  0  0  0  0  0  0  0  0  0  0
   22.0140   16.6170    5.1400 O   0  0  0  0  0  0  0  0  0  0  0  0
   19.9234   14.3787    5.5457 H   0  0  0  0  0  0  0  0  0  0  0  0
   20.4098   16.8151    3.7719 H   0  0  0  0  0  0  0  0  0  0  0  0
   20.4763   15.0367    3.3641 H   0  0  0  0  0  0  0  0  0  0  0  0
   18.1427   16.9214    3.3891 H   0  0  0  0  0  0  0  0  0  0  0  0
   18.5625   15.5875    2.2539 H   0  0  0  0  0  0  0  0  0  0  0  0
   18.0516   13.9540    3.9726 H   0  0  0  0  0  0  0  0  0  0  0  0
   17.2679   14.4634    6.1728 H   0  0  0  0  0  0  0  0  0  0  0  0
   18.7820   15.7066    7.1873 H   0  0  0  0  0  0  0  0  0  0  0  0
   18.6485   17.0624    5.9984 H   0  0  0  0  0  0  0  0  0  0  0  0
   15.7752   16.3061    6.5439 H   0  0  0  0  0  0  0  0  0  0  0  0
   16.5641   17.3441    5.3577 H   0  0  0  0  0  0  0  0  0  0  0  0
   14.7423   16.6402    4.1297 H   0  0  0  0  0  0  0  0  0  0  0  0
   16.2785   15.5106    2.5915 H   0  0  0  0  0  0  0  0  0  0  0  0
   15.5523   13.4649    2.1529 H   0  0  0  0  0  0  0  0  0  0  0  0
   16.0712   12.8608    3.7194 H   0  0  0  0  0  0  0  0  0  0  0  0
   13.4977   14.3720    2.9869 H   0  0  0  0  0  0  0  0  0  0  0  0
   13.6176   12.9118    3.9414 H   0  0  0  0  0  0  0  0  0  0  0  0
   13.3657   15.1943    5.2724 H   0  0  0  0  0  0  0  0  0  0  0  0
   14.6571   14.1622    5.8458 H   0  0  0  0  0  0  0  0  0  0  0  0
  2  1  1  0
  3  2  1  0
  4  3  1  0
  5  4  1  0
  6  1  1  0
  6  5  1  0
  7  5  1  0
  8  7  1  0
  9  8  1  0
  9  4  1  0
 10  9  1  0
 11 10  1  0
 12 11  1  0
 12  8  1  0
 14  1  1  0
 14 13  1  0
 15 14  2  0
  1 16  1  6
  2 17  1  0
  2 18  1  0
  3 19  1  0
  3 20  1  0
  4 21  1  1
  5 22  1  1
  6 23  1  0
  6 24  1  0
  7 25  1  0
  7 26  1  0
  8 27  1  6
  9 28  1  6
 10 29  1  0
 10 30  1  0
 11 31  1  0
 11 32  1  0
 12 33  1  0
 12 34  1  0
M  CHG  2   9   1  13  -1
M  END
$$$$
=
     RDKit          3D

 15 15  0  0  0  0  0  0  0  0999 V2000
   19.3890   15.1590    4.8260 C   0  0  0  0  0  0  0  0  0  0  0  0
   19.7740   14.5760    6.0440 C   0  0  0  0  0  0  0  0  0  0  0  0
   20.7760   15.1720    6.8000 C   0  0  0  0  0  0  0  0  0  0  0  0
   21.4250   16.3040    6.4400 N   0  0  0  0  0  0  0  0  0  0  0  0
   21.0350   16.8620    5.2660 C   0  0  0  0  0  0  0  0  0  0  0  0
   20.0400   16.3320    4.4540 C   0  0  0  0  0  0  0  0  0  0  0  0
   18.7610   13.6030    3.1810 O   0  0  0  0  0  1  0  0  0  0  0  0
   18.3540   14.5050    3.9730 C   0  0  0  0  0  0  0  0  0  0  0  0
   17.1710   14.9340    4.0910 O   0  0  0  0  0  0  0  0  0  0  0  0
   19.6850   17.0990    3.2820 N   0  0  0  0  0  4  0  0  0  0  0  0
   19.3020   18.2640    3.4670 O   0  0  0  0  0  0  0  0  0  0  0  0
   19.9810   16.6050    2.1800 O   0  0  0  0  0  1  0  0  0  0  0  0
   19.2865   13.6552    6.3967 H   0  0  0  0  0  0  0  0  0  0  0  0
   21.0593   14.6945    7.7496 H   0  0  0  0  0  0  0  0  0  0  0  0
   21.5347   17.7858    4.9390 H   0  0  0  0  0  0  0  0  0  0  0  0
  2  1  2  0
  3  2  1  0
  4  3  2  0
  5  4  1  0
  6  1  1  0
  6  5  2  0
  8  7  1  0
  8  1  1  0
  9  8  2  0
 10  6  1  0
 11 10  2  0
 12 10  1  0
  2 13  1  0
  3 14  1  0
  5 15  1  0
M  CHG  3   7  -1  10   1  12  -1
M  END
$$$$
=
     RDKit          3D

 28 28  0  0  0  0  0  0  0  0999 V2000
   15.7100   15.9940    4.8230 C   0  0  0  0  0  0  0  0  0  0  0  0
   14.8570   14.8930    4.2260 C   0  0  0  0  0  0  0  0  0  0  0  0
   15.4480   13.8640    3.4740 C   0  0  0  0  0  0  0  0  0  0  0  0
   14.6610   12.8500    2.9300 C   0  0  0  0  0  0  0  0  0  0  0  0
   15.2470   11.8850    2.2060 F   0  0  0  0  0  0  0  0  0  0  0  0
   13.2880   12.8400    3.1320 C   0  0  0  0  0  0  0  0  0  0  0  0
   12.7020   13.8510    3.8880 C   0  0  0  0  0  0  0  0  0  0  0  0
   13.4710   14.8720    4.4370 C   0  0  0  0  0  0  0  0  0  0  0  0
   11.3730   13.8340    4.0790 F   0  0  0  0  0  0  0  0  0  0  0  0
   12.5130   11.8460    2.5950 O   0  0  0  0  0  0  0  0  0  0  0  0
   17.2010   15.6350    4.8940 C   0  0  1  0  0  0  0  0  0  0  0  0
   18.0390   16.6760    4.2530 N   0  0  0  0  0  0  0  0  0  0  0  0
   19.1400   16.4260    3.4860 C   0  0  0  0  0  0  0  0  0  0  0  0
   19.4830   15.3110    3.1010 O   0  0  0  0  0  0  0  0  0  0  0  0
   19.9220   17.6590    3.1230 C   0  0  0  0  0  0  0  0  0  0  0  0
   18.8440   15.2110    6.6180 O   0  0  0  0  0  1  0  0  0  0  0  0
   17.6270   15.4490    6.3920 C   0  0  0  0  0  0  0  0  0  0  0  0
   16.6600   15.5680    7.2130 O   0  0  0  0  0  0  0  0  0  0  0  0
   15.5972   16.8971    4.2052 H   0  0  0  0  0  0  0  0  0  0  0  0
   15.3631   16.1522    5.8548 H   0  0  0  0  0  0  0  0  0  0  0  0
   16.5363   13.8584    3.3138 H   0  0  0  0  0  0  0  0  0  0  0  0
   12.9927   15.6613    5.0355 H   0  0  0  0  0  0  0  0  0  0  0  0
   11.5343   11.8464    2.7439 H   0  0  0  0  0  0  0  0  0  0  0  0
   17.3554   14.6940    4.3457 H   0  0  0  0  0  0  0  0  0  0  0  0
   17.7709   17.6600    4.3969 H   0  0  0  0  0  0  0  0  0  0  0  0
   20.2466   18.1708    4.0410 H   0  0  0  0  0  0  0  0  0  0  0  0
   20.8040   17.3728    2.5313 H   0  0  0  0  0  0  0  0  0  0  0  0
   19.2871   18.3349    2.5313 H   0  0  0  0  0  0  0  0  0  0  0  0
  2  1  1  0
  3  2  2  0
  4  3  1  0
  5  4  1  0
  6  4  2  0
  7  6  1  0
  8  7  2  0
  8  2  1  0
  9  7  1  0
 10  6  1  0
 11  1  1  0
 12 11  1  0
 13 12  1  0
 14 13  2  0
 15 13  1  0
 17 11  1  0
 17 16  1  0
 18 17  2  0
  1 19  1  0
  1 20  1  0
  3 21  1  0
  8 22  1  0
 10 23  1  0
 11 24  1  6
 12 25  1  0
 15 26  1  0
 15 27  1  0
 15 28  1  0
M  CHG  1  16  -1
M  END
$$$$
=
     RDKit          3D

 38 39  0  0  0  0  0  0  0  0999 V2000
   18.2430   16.2440    5.5810 S   0  0  0  0  0  6  0  0  0  0  0  0
   18.6620   15.4860    6.7440 O   0  0  0  0  0  0  0  0  0  0  0  0
   17.1340   17.1700    5.6570 O   0  0  0  0  0  0  0  0  0  0  0  0
   16.5840   13.6970    3.1500 N   0  0  0  0  0  0  0  0  0  0  0  0
   17.8510   13.2390    3.0920 N   0  0  0  0  0  0  0  0  0  0  0  0
   18.5190   14.0460    3.9200 C   0  0  0  0  0  0  0  0  0  0  0  0
   17.6920   15.0260    4.4900 C   0  0  0  0  0  0  0  0  0  0  0  0
   16.4260   14.7830    3.9780 C   0  0  0  0  0  0  0  0  0  0  0  0
   15.1180   15.4540    4.1970 C   0  0  0  0  0  0  0  0  0  0  0  0
   14.7000   12.1080    3.2100 C   0  0  0  0  0  0  0  0  0  0  0  0
   15.5660   13.0240    2.3630 C   0  0  0  0  0  0  0  0  0  0  0  0
   19.6070   16.9970    4.8920 N   0  0  0  0  0  0  0  0  0  0  0  0
   19.5160   17.2660    3.4430 C   0  0  0  0  0  0  0  0  0  0  0  0
   20.8890   17.5990    2.8870 C   0  0  0  0  0  0  0  0  0  0  0  0
   21.4460   18.8380    3.5680 C   0  0  0  0  0  0  0  0  0  0  0  0
   21.4870   18.6880    5.0860 C   0  0  1  0  0  0  0  0  0  0  0  0
   20.2010   18.1180    5.6830 C   0  0  0  0  0  0  0  0  0  0  0  0
   22.6970   17.9490    5.6750 C   0  0  0  0  0  0  0  0  0  0  0  0
   22.4450   16.9310    6.3740 O   0  0  0  0  0  0  0  0  0  0  0  0
   23.8190   18.4190    5.3230 O   0  0  0  0  0  1  0  0  0  0  0  0
   19.5946   13.9532    4.1311 H   0  0  0  0  0  0  0  0  0  0  0  0
   14.9313   15.5498    5.2768 H   0  0  0  0  0  0  0  0  0  0  0  0
   15.1373   16.4535    3.7381 H   0  0  0  0  0  0  0  0  0  0  0  0
   14.3174   14.8553    3.7381 H   0  0  0  0  0  0  0  0  0  0  0  0
   14.8883   12.3072    4.2753 H   0  0  0  0  0  0  0  0  0  0  0  0
   13.6396   12.2937    2.9841 H   0  0  0  0  0  0  0  0  0  0  0  0
   14.9449   11.0597    2.9841 H   0  0  0  0  0  0  0  0  0  0  0  0
   16.0592   12.4246    1.5836 H   0  0  0  0  0  0  0  0  0  0  0  0
   14.9147   13.7937    1.9232 H   0  0  0  0  0  0  0  0  0  0  0  0
   19.1226   16.3751    2.9316 H   0  0  0  0  0  0  0  0  0  0  0  0
   18.8434   18.1204    3.2770 H   0  0  0  0  0  0  0  0  0  0  0  0
   21.5676   16.7515    3.0636 H   0  0  0  0  0  0  0  0  0  0  0  0
   20.8014   17.7921    1.8076 H   0  0  0  0  0  0  0  0  0  0  0  0
   22.4677   19.0155    3.2012 H   0  0  0  0  0  0  0  0  0  0  0  0
   20.7840   19.6832    3.3285 H   0  0  0  0  0  0  0  0  0  0  0  0
   21.5986   19.7386    5.3924 H   0  0  0  0  0  0  0  0  0  0  0  0
   20.4240   17.7473    6.6943 H   0  0  0  0  0  0  0  0  0  0  0  0
   19.4623   18.9330    5.6834 H   0  0  0  0  0  0  0  0  0  0  0  0
  2  1  2  0
  3  1  2  0
  5  4  1  0
  6  5  2  0
  7  6  1  0
  7  1  1  0
  8  7  2  0
  8  4  1  0
  9  8  1  0
 11 10  1  0
 11  4  1  0
 12  1  1  0
 13 12  1  0
 14 13  1  0
 15 14  1  0
 16 15  1  0
 17 16  1  0
 17 12  1  0
 18 16  1  0
 19 18  2  0
 20 18  1  0
  6 21  1  0
  9 22  1  0
  9 23  1  0
  9 24  1  0
 10 25  1  0
 10 26  1  0
 10 27  1  0
 11 28  1  0
 11 29  1  0
 13 30  1  0
 13 31  1  0
 14 32  1  0
 14 33  1  0
 15 34  1  0
 15 35  1  0
 16 36  1  1
 17 37  1  0
 17 38  1  0
M  CHG  1  20  -1
M  END
$$$$
=
     RDKit          3D

 29 30  0  0  0  0  0  0  0  0999 V2000
   15.2700   14.1680    4.1840 N   0  0  0  0  0  0  0  0  0  0  0  0
   15.2430   12.9870    3.4730 C   0  0  0  0  0  0  0  0  0  0  0  0
   13.9550   11.9640    3.1760 S   0  0  0  0  0  0  0  0  0  0  0  0
   16.8280   12.6850    2.7560 S   0  0  0  0  0  0  0  0  0  0  0  0
   17.5270   14.0690    3.5100 C   0  0  0  0  0  0  0  0  0  0  0  0
   18.8470   14.3000    3.5080 C   0  0  0  0  0  0  0  0  0  0  0  0
   16.4530   14.8870    4.1410 C   0  0  0  0  0  0  0  0  0  0  0  0
   16.5930   16.0560    4.4780 O   0  0  0  0  0  0  0  0  0  0  0  0
   19.5430   15.3860    4.2040 C   0  0  0  0  0  0  0  0  0  0  0  0
   20.0670   15.2000    5.4930 C   0  0  0  0  0  0  0  0  0  0  0  0
   20.7610   16.2320    6.1270 C   0  0  0  0  0  0  0  0  0  0  0  0
   20.9410   17.4420    5.4670 C   0  0  0  0  0  0  0  0  0  0  0  0
   20.4410   17.6380    4.1840 C   0  0  0  0  0  0  0  0  0  0  0  0
   19.7450   16.6070    3.5490 C   0  0  0  0  0  0  0  0  0  0  0  0
   21.6100   18.4330    6.0710 F   0  0  0  0  0  0  0  0  0  0  0  0
   14.1720   14.6770    5.0080 C   0  0  0  0  0  0  0  0  0  0  0  0
   12.9890   15.1990    4.2020 C   0  0  0  0  0  0  0  0  0  0  0  0
   10.7360   14.6170    3.8770 O   0  0  0  0  0  1  0  0  0  0  0  0
   11.7590   14.3970    4.5880 C   0  0  0  0  0  0  0  0  0  0  0  0
   11.9140   13.6180    5.5660 O   0  0  0  0  0  0  0  0  0  0  0  0
   19.4704   13.6053    2.9260 H   0  0  0  0  0  0  0  0  0  0  0  0
   19.9301   14.2365    6.0058 H   0  0  0  0  0  0  0  0  0  0  0  0
   21.1623   16.0888    7.1411 H   0  0  0  0  0  0  0  0  0  0  0  0
   20.5929   18.5998    3.6722 H   0  0  0  0  0  0  0  0  0  0  0  0
   19.3544   16.7546    2.5313 H   0  0  0  0  0  0  0  0  0  0  0  0
   13.8176   13.8616    5.6557 H   0  0  0  0  0  0  0  0  0  0  0  0
   14.5694   15.5276    5.5812 H   0  0  0  0  0  0  0  0  0  0  0  0
   12.8254   16.2630    4.4279 H   0  0  0  0  0  0  0  0  0  0  0  0
   13.1878   15.0939    3.1252 H   0  0  0  0  0  0  0  0  0  0  0  0
  2  1  1  0
  3  2  2  0
  4  2  1  0
  5  4  1  0
  6  5  2  0
  7  1  1  0
  7  5  1  0
  8  7  2  0
  9  6  1  0
 10  9  2  0
 11 10  1  0
 12 11  2  0
 13 12  1  0
 14  9  1  0
 14 13  2  0
 15 12  1  0
 16  1  1  0
 17 16  1  0
 19 18  1  0
 19 17  1  0
 20 19  2  0
  6 21  1  0
 10 22  1  0
 11 23  1  0
 13 24  1  0
 14 25  1  0
 16 26  1  0
 16 27  1  0
 17 28  1  0
 17 29  1  0
M  CHG  1  18  -1
M  END
$$$$
=
     RDKit          3D

 28 28  0  0  0  0  0  0  0  0999 V2000
   12.7740   13.7280    3.6930 C   0  0  0  0  0  0  0  0  0  0  0  0
   13.5950   14.7390    4.2320 C   0  0  0  0  0  0  0  0  0  0  0  0
   14.9840   14.6870    4.0780 C   0  0  0  0  0  0  0  0  0  0  0  0
   15.5720   13.6100    3.3730 C   0  0  0  0  0  0  0  0  0  0  0  0
   14.7650   12.6070    2.8370 C   0  0  0  0  0  0  0  0  0  0  0  0
   13.3810   12.6700    2.9980 C   0  0  0  0  0  0  0  0  0  0  0  0
   15.8770   15.6570    4.5850 N   0  0  0  0  0  0  0  0  0  0  0  0
   16.2650   15.8870    5.8890 C   0  0  0  0  0  0  0  0  0  0  0  0
   15.9040   15.2860    6.8910 O   0  0  0  0  0  0  0  0  0  0  0  0
   17.2520   17.0430    5.9610 C   0  0  0  0  0  0  0  0  0  0  0  0
   18.3790   16.9180    4.9490 C   0  0  0  0  0  0  0  0  0  0  0  0
   10.6020   12.8690    3.2330 O   0  0  0  0  0  1  0  0  0  0  0  0
   11.2630   13.7650    3.8500 C   0  0  0  0  0  0  0  0  0  0  0  0
   10.7700   14.6800    4.5780 O   0  0  0  0  0  0  0  0  0  0  0  0
   16.9480   13.6480    3.2740 O   0  0  0  0  0  0  0  0  0  0  0  0
   17.5950   12.4270    2.9380 C   0  0  0  0  0  0  0  0  0  0  0  0
   13.1387   15.5771    4.7791 H   0  0  0  0  0  0  0  0  0  0  0  0
   15.2188   11.7683    2.2886 H   0  0  0  0  0  0  0  0  0  0  0  0
   12.7522   11.8744    2.5717 H   0  0  0  0  0  0  0  0  0  0  0  0
   16.2981   16.2808    3.8818 H   0  0  0  0  0  0  0  0  0  0  0  0
   16.7098   17.9807    5.7694 H   0  0  0  0  0  0  0  0  0  0  0  0
   17.7040   17.0311    6.9638 H   0  0  0  0  0  0  0  0  0  0  0  0
   19.3372   16.8117    5.4786 H   0  0  0  0  0  0  0  0  0  0  0  0
   18.2087   16.0332    4.3180 H   0  0  0  0  0  0  0  0  0  0  0  0
   18.4067   17.8186    4.3180 H   0  0  0  0  0  0  0  0  0  0  0  0
   17.8765   11.8957    3.8591 H   0  0  0  0  0  0  0  0  0  0  0  0
   16.9108   11.7999    2.3475 H   0  0  0  0  0  0  0  0  0  0  0  0
   18.4981   12.6410    2.3475 H   0  0  0  0  0  0  0  0  0  0  0  0
  2  1  2  0
  3  2  1  0
  4  3  2  0
  5  4  1  0
  6  5  2  0
  6  1  1  0
  7  3  1  0
  8  7  1  0
  9  8  2  0
 10  8  1  0
 11 10  1  0
 13 12  1  0
 13  1  1  0
 14 13  2  0
 15  4  1  0
 16 15  1  0
  2 17  1  0
  5 18  1  0
  6 19  1  0
  7 20  1  0
 10 21  1  0
 10 22  1  0
 11 23  1  0
 11 24  1  0
 11 25  1  0
 16 26  1  0
 16 27  1  0
 16 28  1  0
M  CHG  1  12  -1
M  END
$$$$
=
     RDKit          3D

 26 26  0  0  0  0  0  0  0  0999 V2000
   17.0470   14.3820    3.7170 C   0  0  0  0  0  0  0  0  0  0  0  0
   15.6620   14.1690    3.7050 C   0  0  0  0  0  0  0  0  0  0  0  0
   14.8050   15.0670    4.3370 C   0  0  0  0  0  0  0  0  0  0  0  0
   15.3320   16.1920    4.9640 C   0  0  0  0  0  0  0  0  0  0  0  0
   16.7120   16.4110    4.9610 C   0  0  0  0  0  0  0  0  0  0  0  0
   17.5980   15.5080    4.3450 C   0  0  0  0  0  0  0  0  0  0  0  0
   17.1220   12.2980    2.7520 C   0  0  0  0  0  0  0  0  0  0  0  0
   17.8340   13.5030    3.0230 O   0  0  0  0  0  0  0  0  0  0  0  0
   19.0940   15.8370    4.3680 C   0  0  1  0  0  0  0  0  0  0  0  0
   19.4540   16.9240    3.3220 C   0  0  0  0  0  0  0  0  0  0  0  0
   19.4890   18.1220    3.7570 O   0  0  0  0  0  0  0  0  0  0  0  0
   19.6630   16.5540    2.1280 O   0  0  0  0  0  1  0  0  0  0  0  0
   19.5930   16.0720    5.8050 C   0  0  0  0  0  0  0  0  0  0  0  0
   21.0160   15.6060    6.1340 C   0  0  0  0  0  0  0  0  0  0  0  0
   21.7930   15.3620    5.1650 O   0  0  0  0  0  0  0  0  0  0  0  0
   21.2910   15.5540    7.3740 O   0  0  0  0  0  1  0  0  0  0  0  0
   15.2490   13.2872    3.1933 H   0  0  0  0  0  0  0  0  0  0  0  0
   13.7196   14.8882    4.3404 H   0  0  0  0  0  0  0  0  0  0  0  0
   14.6623   16.9087    5.4619 H   0  0  0  0  0  0  0  0  0  0  0  0
   17.1148   17.3096    5.4512 H   0  0  0  0  0  0  0  0  0  0  0  0
   16.8386   11.8184    3.7005 H   0  0  0  0  0  0  0  0  0  0  0  0
   16.2158   12.5298    2.1732 H   0  0  0  0  0  0  0  0  0  0  0  0
   17.7623   11.6160    2.1732 H   0  0  0  0  0  0  0  0  0  0  0  0
   19.6699   14.9616    4.0334 H   0  0  0  0  0  0  0  0  0  0  0  0
   19.5449   17.1535    6.0000 H   0  0  0  0  0  0  0  0  0  0  0  0
   18.9378   15.4562    6.4386 H   0  0  0  0  0  0  0  0  0  0  0  0
  2  1  2  0
  3  2  1  0
  4  3  2  0
  5  4  1  0
  6  1  1  0
  6  5  2  0
  8  7  1  0
  8  1  1  0
  9  6  1  0
 10  9  1  0
 11 10  2  0
 12 10  1  0
 13  9  1  0
 14 13  1  0
 15 14  2  0
 16 14  1  0
  2 17  1  0
  3 18  1  0
  4 19  1  0
  5 20  1  0
  7 21  1  0
  7 22  1  0
  7 23  1  0
  9 24  1  6
 13 25  1  0
 13 26  1  0
M  CHG  2  12  -1  16  -1
M  END
$$$$
=
     RDKit          3D

 25 26  0  0  0  0  0  0  0  0999 V2000
   18.4740   14.0770    3.5880 C   0  0  0  0  0  0  0  0  0  0  0  0
   19.6150   14.7580    3.5270 N   0  0  0  0  0  0  0  0  0  0  0  0
   19.3840   15.8740    4.3030 N   0  0  0  0  0  0  0  0  0  0  0  0
   18.0680   15.9120    4.7020 C   0  0  0  0  0  0  0  0  0  0  0  0
   17.4810   14.7270    4.3120 C   0  0  0  0  0  0  0  0  0  0  0  0
   20.4990   16.7100    4.6280 C   0  0  0  0  0  0  0  0  0  0  0  0
   20.8060   17.7950    3.7850 C   0  0  0  0  0  0  0  0  0  0  0  0
   21.9010   18.6230    4.0520 C   0  0  0  0  0  0  0  0  0  0  0  0
   22.7080   18.3740    5.1570 C   0  0  0  0  0  0  0  0  0  0  0  0
   22.4230   17.2940    5.9900 C   0  0  0  0  0  0  0  0  0  0  0  0
   21.3280   16.4620    5.7260 C   0  0  0  0  0  0  0  0  0  0  0  0
   17.3020   17.0470    5.4040 C   0  0  0  0  0  0  0  0  0  0  0  0
   16.0420   17.0130    5.2930 O   0  0  0  0  0  0  0  0  0  0  0  0
   17.9970   17.9180    6.0010 O   0  0  0  0  0  1  0  0  0  0  0  0
   16.9890   12.4610    2.8110 C   0  0  0  0  0  0  0  0  0  0  0  0
   18.3360   12.8820    2.9680 O   0  0  0  0  0  0  0  0  0  0  0  0
   16.4604   14.3761    4.5250 H   0  0  0  0  0  0  0  0  0  0  0  0
   20.1766   17.9940    2.9051 H   0  0  0  0  0  0  0  0  0  0  0  0
   22.1240   19.4712    3.3880 H   0  0  0  0  0  0  0  0  0  0  0  0
   23.5670   19.0265    5.3723 H   0  0  0  0  0  0  0  0  0  0  0  0
   23.0631   17.0934    6.8618 H   0  0  0  0  0  0  0  0  0  0  0  0
   21.1188   15.6078    6.3868 H   0  0  0  0  0  0  0  0  0  0  0  0
   16.5317   12.3181    3.8012 H   0  0  0  0  0  0  0  0  0  0  0  0
   16.4280   13.2266    2.2551 H   0  0  0  0  0  0  0  0  0  0  0  0
   16.9638   11.5121    2.2551 H   0  0  0  0  0  0  0  0  0  0  0  0
  2  1  2  0
  3  2  1  0
  4  3  1  0
  5  4  2  0
  5  1  1  0
  6  3  1  0
  7  6  2  0
  8  7  1  0
  9  8  2  0
 10  9  1  0
 11  6  1  0
 11 10  2  0
 12  4  1  0
 13 12  2  0
 14 12  1  0
 16 15  1  0
 16  1  1  0
  5 17  1  0
  7 18  1  0
  8 19  1  0
  9 20  1  0
 10 21  1  0
 11 22  1  0
 15 23  1  0
 15 24  1  0
 15 25  1  0
M  CHG  1  14  -1
M  END
$$$$
=
     RDKit          3D

 27 28  0  0  0  0  0  0  0  0999 V2000
   21.4750   17.1640    4.9480 C   0  0  0  0  0  0  0  0  0  0  0  0
   20.6980   17.3010    3.8220 C   0  0  0  0  0  0  0  0  0  0  0  0
   19.7500   16.4130    3.4500 N   0  0  0  0  0  0  0  0  0  0  0  0
   19.5890   15.3490    4.2550 C   0  0  0  0  0  0  0  0  0  0  0  0
   20.2880   15.1160    5.3730 N   0  0  0  0  0  0  0  0  0  0  0  0
   21.2160   16.0350    5.6900 C   0  0  0  0  0  0  0  0  0  0  0  0
   22.6110   19.1570    4.5420 O   0  0  0  0  0  1  0  0  0  0  0  0
   22.5060   18.1570    5.3250 C   0  0  0  0  0  0  0  0  0  0  0  0
   23.1860   17.9390    6.3700 O   0  0  0  0  0  0  0  0  0  0  0  0
   21.9070   15.7540    6.8410 O   0  0  0  0  0  0  0  0  0  0  0  0
   18.3400   14.1810    3.7650 S   0  0  0  0  0  0  0  0  0  0  0  0
   16.8680   15.2380    3.9060 C   0  0  0  0  0  0  0  0  0  0  0  0
   15.6000   14.4400    3.7020 C   0  0  0  0  0  0  0  0  0  0  0  0
   15.6110   13.2660    2.9350 C   0  0  0  0  0  0  0  0  0  0  0  0
   14.4420   12.5250    2.7570 C   0  0  0  0  0  0  0  0  0  0  0  0
   13.2520   12.9460    3.3470 C   0  0  0  0  0  0  0  0  0  0  0  0
   13.2290   14.1060    4.1180 C   0  0  0  0  0  0  0  0  0  0  0  0
   14.3970   14.8490    4.2980 C   0  0  0  0  0  0  0  0  0  0  0  0
   20.8574   18.1850    3.1870 H   0  0  0  0  0  0  0  0  0  0  0  0
   22.6124   16.3720    7.1583 H   0  0  0  0  0  0  0  0  0  0  0  0
   16.8480   15.6936    4.9070 H   0  0  0  0  0  0  0  0  0  0  0  0
   16.9204   16.0136    3.1277 H   0  0  0  0  0  0  0  0  0  0  0  0
   16.5484   12.9266    2.4701 H   0  0  0  0  0  0  0  0  0  0  0  0
   14.4600   11.6076    2.1503 H   0  0  0  0  0  0  0  0  0  0  0  0
   12.3306   12.3623    3.2040 H   0  0  0  0  0  0  0  0  0  0  0  0
   12.2897   14.4368    4.5853 H   0  0  0  0  0  0  0  0  0  0  0  0
   14.3743   15.7618    4.9115 H   0  0  0  0  0  0  0  0  0  0  0  0
  2  1  2  0
  3  2  1  0
  4  3  2  0
  5  4  1  0
  6  5  2  0
  6  1  1  0
  8  1  1  0
  8  7  1  0
  9  8  2  0
 10  6  1  0
 11  4  1  0
 12 11  1  0
 13 12  1  0
 14 13  2  0
 15 14  1  0
 16 15  2  0
 17 16  1  0
 18 17  2  0
 18 13  1  0
  2 19  1  0
 10 20  1  0
 12 21  1  0
 12 22  1  0
 14 23  1  0
 15 24  1  0
 16 25  1  0
 17 26  1  0
 18 27  1  0
M  CHG  1   7  -1
M  END
$$$$
=
     RDKit          3D

 44 45  0  0  0  0  0  0  0  0999 V2000
    8.2600   11.5320    1.3490 N   0  0  0  0  0  0  0  0  0  0  0  0
    9.0150   12.2260    2.2600 C   0  0  0  0  0  0  0  0  0  0  0  0
    8.3590   13.0720    3.6190 S   0  0  0  0  0  0  0  0  0  0  0  0
    9.9250   13.5860    4.1030 C   0  0  0  0  0  0  0  0  0  0  0  0
   10.8530   13.0800    3.2090 C   0  0  0  0  0  0  0  0  0  0  0  0
   10.3280   12.2800    2.2010 N   0  0  0  0  0  0  0  0  0  0  0  0
   12.2960   13.2600    3.2920 C   0  0  0  0  0  0  0  0  0  0  0  0
   13.1860   12.3080    2.7940 C   0  0  0  0  0  0  0  0  0  0  0  0
   14.5680   12.5010    2.8940 C   0  0  0  0  0  0  0  0  0  0  0  0
   15.0830   13.6450    3.5090 C   0  0  0  0  0  0  0  0  0  0  0  0
   14.1990   14.6020    4.0390 C   0  0  0  0  0  0  0  0  0  0  0  0
   12.8130   14.3960    3.9280 C   0  0  0  0  0  0  0  0  0  0  0  0
   14.7160   15.8380    4.7190 C   0  0  0  0  0  0  0  0  0  0  0  0
   16.4200   13.9230    3.6530 O   0  0  0  0  0  0  0  0  0  0  0  0
   17.3320   12.9890    3.0900 C   0  0  0  0  0  0  0  0  0  0  0  0
    8.4710   11.5400   -1.0920 C   0  0  0  0  0  0  0  0  0  0  0  0
    8.9440   10.9190    0.2140 C   0  0  0  0  0  0  0  0  0  0  0  0
    6.8060   11.6290    1.2980 C   0  0  0  0  0  0  0  0  0  0  0  0
    6.1420   10.3900    1.8820 C   0  0  0  0  0  0  0  0  0  0  0  0
   10.0840   14.3920    5.3620 C   0  0  0  0  0  0  0  0  0  0  0  0
   10.2340   13.4920    6.5970 C   0  0  0  0  0  0  0  0  0  0  0  0
    9.1560   13.1860    7.1840 O   0  0  0  0  0  0  0  0  0  0  0  0
   11.4230   13.2020    6.9170 O   0  0  0  0  0  1  0  0  0  0  0  0
   12.7970   11.3960    2.3177 H   0  0  0  0  0  0  0  0  0  0  0  0
   15.2551   11.7456    2.4849 H   0  0  0  0  0  0  0  0  0  0  0  0
   12.1213   15.1408    4.3485 H   0  0  0  0  0  0  0  0  0  0  0  0
   14.6610   15.7066    5.8097 H   0  0  0  0  0  0  0  0  0  0  0  0
   15.7613   16.0096    4.4226 H   0  0  0  0  0  0  0  0  0  0  0  0
   14.1042   16.7027    4.4226 H   0  0  0  0  0  0  0  0  0  0  0  0
   17.8542   12.4543    3.8971 H   0  0  0  0  0  0  0  0  0  0  0  0
   16.7811   12.2676    2.4686 H   0  0  0  0  0  0  0  0  0  0  0  0
   18.0664   13.5225    2.4686 H   0  0  0  0  0  0  0  0  0  0  0  0
    7.8176   12.3978   -0.8746 H   0  0  0  0  0  0  0  0  0  0  0  0
    9.3412   11.8798   -1.6728 H   0  0  0  0  0  0  0  0  0  0  0  0
    7.9122   10.7914   -1.6728 H   0  0  0  0  0  0  0  0  0  0  0  0
    8.7284    9.8404    0.2009 H   0  0  0  0  0  0  0  0  0  0  0  0
   10.0260   11.0882    0.3170 H   0  0  0  0  0  0  0  0  0  0  0  0
    6.4864   12.5103    1.8735 H   0  0  0  0  0  0  0  0  0  0  0  0
    6.5034   11.7177    0.2442 H   0  0  0  0  0  0  0  0  0  0  0  0
    6.1700   10.4423    2.9804 H   0  0  0  0  0  0  0  0  0  0  0  0
    5.0965   10.3404    1.5438 H   0  0  0  0  0  0  0  0  0  0  0  0
    6.6797    9.4919    1.5438 H   0  0  0  0  0  0  0  0  0  0  0  0
   10.9799   15.0236    5.2702 H   0  0  0  0  0  0  0  0  0  0  0  0
    9.1807   15.0060    5.4926 H   0  0  0  0  0  0  0  0  0  0  0  0
  2  1  1  0
  3  2  1  0
  4  3  1  0
  5  4  2  0
  6  5  1  0
  6  2  2  0
  7  5  1  0
  8  7  2  0
  9  8  1  0
 10  9  2  0
 11 10  1  0
 12 11  2  0
 12  7  1  0
 13 11  1  0
 14 10  1  0
 15 14  1  0
 17 16  1  0
 17  1  1  0
 18  1  1  0
 19 18  1  0
 20  4  1  0
 21 20  1  0
 22 21  2  0
 23 21  1  0
  8 24  1  0
  9 25  1  0
 12 26  1  0
 13 27  1  0
 13 28  1  0
 13 29  1  0
 15 30  1  0
 15 31  1  0
 15 32  1  0
 16 33  1  0
 16 34  1  0
 16 35  1  0
 17 36  1  0
 17 37  1  0
 18 38  1  0
 18 39  1  0
 19 40  1  0
 19 41  1  0
 19 42  1  0
 20 43  1  0
 20 44  1  0
M  CHG  1  23  -1
M  END
$$$$
=
     RDKit          3D

 38 39  0  0  0  0  0  0  0  0999 V2000
   17.3500   17.7140    6.1580 O   0  0  0  0  0  0  0  0  0  0  0  0
   17.7870   16.7300    5.5630 C   0  0  0  0  0  0  0  0  0  0  0  0
   16.9880   15.7410    5.0360 N   0  0  0  0  0  0  0  0  0  0  0  0
   19.2730   16.4980    5.3550 C   0  0  0  0  0  0  0  0  0  0  0  0
   19.8550   17.3840    4.2450 C   0  0  1  0  0  0  0  0  0  0  0  0
   21.3810   17.4290    4.3110 C   0  0  1  0  0  0  0  0  0  0  0  0
   21.9960   18.8220    4.2030 C   0  0  0  0  0  0  0  0  0  0  0  0
   23.3000   18.6500    4.9380 C   0  0  0  0  0  0  0  0  0  0  0  0
   22.8880   17.7490    6.0770 C   0  0  0  0  0  0  0  0  0  0  0  0
   21.8460   16.9020    5.5820 O   0  0  0  0  0  0  0  0  0  0  0  0
   19.5360   16.8710    2.8380 C   0  0  0  0  0  0  0  0  0  0  0  0
   19.5050   17.7500    1.9340 O   0  0  0  0  0  0  0  0  0  0  0  0
   19.3130   15.6290    2.7370 O   0  0  0  0  0  1  0  0  0  0  0  0
   15.5780   15.9700    4.8690 C   0  0  0  0  0  0  0  0  0  0  0  0
   14.8890   14.8040    4.2100 C   0  0  0  0  0  0  0  0  0  0  0  0
   13.5130   14.5980    4.3920 C   0  0  0  0  0  0  0  0  0  0  0  0
   12.8710   13.5150    3.7900 C   0  0  0  0  0  0  0  0  0  0  0  0
   13.5960   12.6250    3.0000 C   0  0  0  0  0  0  0  0  0  0  0  0
   14.9620   12.8200    2.8080 C   0  0  0  0  0  0  0  0  0  0  0  0
   15.6070   13.9050    3.4090 C   0  0  0  0  0  0  0  0  0  0  0  0
   17.3995   14.8376    4.7614 H   0  0  0  0  0  0  0  0  0  0  0  0
   19.7997   16.7183    6.2952 H   0  0  0  0  0  0  0  0  0  0  0  0
   19.4090   15.4493    5.0523 H   0  0  0  0  0  0  0  0  0  0  0  0
   19.3962   18.3692    4.4152 H   0  0  0  0  0  0  0  0  0  0  0  0
   21.6960   16.8343    3.4409 H   0  0  0  0  0  0  0  0  0  0  0  0
   22.1638   19.1039    3.1531 H   0  0  0  0  0  0  0  0  0  0  0  0
   21.3591   19.6197    4.6130 H   0  0  0  0  0  0  0  0  0  0  0  0
   24.0595   18.1717    4.3020 H   0  0  0  0  0  0  0  0  0  0  0  0
   23.7616   19.5955    5.2590 H   0  0  0  0  0  0  0  0  0  0  0  0
   23.7437   17.1420    6.4075 H   0  0  0  0  0  0  0  0  0  0  0  0
   22.5403   18.3379    6.9385 H   0  0  0  0  0  0  0  0  0  0  0  0
   15.1261   16.1363    5.8580 H   0  0  0  0  0  0  0  0  0  0  0  0
   15.4520   16.8490    4.2198 H   0  0  0  0  0  0  0  0  0  0  0  0
   12.9351   15.2966    5.0149 H   0  0  0  0  0  0  0  0  0  0  0  0
   11.7917   13.3638    3.9392 H   0  0  0  0  0  0  0  0  0  0  0  0
   13.0903   11.7694    2.5285 H   0  0  0  0  0  0  0  0  0  0  0  0
   15.5341   12.1190    2.1824 H   0  0  0  0  0  0  0  0  0  0  0  0
   16.6855   14.0544    3.2523 H   0  0  0  0  0  0  0  0  0  0  0  0
  2  1  2  0
  3  2  1  0
  4  2  1  0
  5  4  1  0
  6  5  1  0
  7  6  1  0
  8  7  1  0
  9  8  1  0
 10  6  1  0
 10  9  1  0
 11  5  1  0
 12 11  2  0
 13 11  1  0
 14  3  1  0
 15 14  1  0
 16 15  2  0
 17 16  1  0
 18 17  2  0
 19 18  1  0
 20 19  2  0
 20 15  1  0
  3 21  1  0
  4 22  1  0
  4 23  1  0
  5 24  1  6
  6 25  1  6
  7 26  1  0
  7 27  1  0
  8 28  1  0
  8 29  1  0
  9 30  1  0
  9 31  1  0
 14 32  1  0
 14 33  1  0
 16 34  1  0
 17 35  1  0
 18 36  1  0
 19 37  1  0
 20 38  1  0
M  CHG  1  13  -1
M  END
$$$$
=
     RDKit          3D

 81 84  0  0  0  0  0  0  0  0999 V2000
   22.5590   25.0260   14.1300 O   0  0  0  0  0  0  0  0  0  0  0  0
   19.7630   22.8990   13.3250 C   0  0  1  0  0  0  0  0  0  0  0  0
   21.0470   23.3470   13.7600 O   0  0  0  0  0  0  0  0  0  0  0  0
   21.2620   24.7590   13.6090 C   0  0  2  0  0  0  0  0  0  0  0  0
   21.1230   25.1700   12.1260 C   0  0  2  0  0  0  0  0  0  0  0  0
   19.7560   24.7080   11.6030 C   0  0  2  0  0  0  0  0  0  0  0  0
   19.5500   23.2030   11.8320 C   0  0  2  0  0  0  0  0  0  0  0  0
   22.1900   24.5330   11.3810 O   0  0  0  0  0  0  0  0  0  0  0  0
   23.3760   25.2000   11.3490 C   0  0  0  0  0  0  0  0  0  0  0  0
   23.4970   26.4180   11.2750 O   0  0  0  0  0  0  0  0  0  0  0  0
   24.5170   24.2320   11.2820 C   0  0  0  0  0  0  0  0  0  0  0  0
   19.6230   24.9860   10.1920 O   0  0  0  0  0  0  0  0  0  0  0  0
   18.5280   25.7100    9.8350 C   0  0  0  0  0  0  0  0  0  0  0  0
   17.8220   26.3480   10.6050 O   0  0  0  0  0  0  0  0  0  0  0  0
   18.2600   25.5580    8.3690 C   0  0  0  0  0  0  0  0  0  0  0  0
   18.1870   22.8800   11.4670 O   0  0  0  0  0  0  0  0  0  0  0  0
   18.0210   21.9580   10.4800 C   0  0  0  0  0  0  0  0  0  0  0  0
   18.7530   21.7910    9.5170 O   0  0  0  0  0  0  0  0  0  0  0  0
   16.8050   21.1300   10.7590 C   0  0  0  0  0  0  0  0  0  0  0  0
   19.6920   21.3910   13.6230 C   0  0  0  0  0  0  0  0  0  0  0  0
   19.9180   21.0650   15.0050 O   0  0  0  0  0  0  0  0  0  0  0  0
   21.8900   21.0160   16.2700 C   0  0  0  0  0  0  0  0  0  0  0  0
   21.0290   20.3230   15.2570 C   0  0  0  0  0  0  0  0  0  0  0  0
   21.3190   19.2630   14.7240 O   0  0  0  0  0  0  0  0  0  0  0  0
   22.5910   25.3000   15.5350 C   0  0  0  0  0  0  0  0  0  0  0  0
   23.1890   26.6890   15.7770 C   0  0  2  0  0  0  0  0  0  0  0  0
   24.3390   26.9610   14.8900 N   0  0  0  0  0  0  0  0  0  0  0  0
   25.4550   26.2040   14.8080 C   0  0  0  0  0  0  0  0  0  0  0  0
   25.7910   25.3240   15.5870 O   0  0  0  0  0  0  0  0  0  0  0  0
   26.1620   26.5770   13.7130 O   0  0  0  0  0  0  0  0  0  0  0  0
   27.1510   27.5910   13.9610 C   0  0  0  0  0  0  0  0  0  0  0  0
   28.5380   27.0100   13.6710 C   0  0  0  0  0  0  0  0  0  0  0  0
   29.2410   26.4950   14.9230 C   0  0  0  0  0  0  0  0  0  0  0  0
   29.5830   27.1980   16.0680 C   0  0  0  0  0  0  0  0  0  0  0  0
   30.2390   26.5100   17.0920 C   0  0  0  0  0  0  0  0  0  0  0  0
   30.5450   25.1470   16.9600 C   0  0  0  0  0  0  0  0  0  0  0  0
   30.2050   24.4450   15.7990 C   0  0  0  0  0  0  0  0  0  0  0  0
   29.5550   25.1250   14.7820 C   0  0  0  0  0  0  0  0  0  0  0  0
   29.0940   24.6680   13.4890 C   0  0  0  0  0  0  0  0  0  0  0  0
   28.4870   25.7480   12.8110 C   0  0  0  0  0  0  0  0  0  0  0  0
   27.9590   25.5940   11.5380 C   0  0  0  0  0  0  0  0  0  0  0  0
   28.0320   24.3340   10.9430 C   0  0  0  0  0  0  0  0  0  0  0  0
   28.6300   23.2550   11.6140 C   0  0  0  0  0  0  0  0  0  0  0  0
   29.1670   23.4190   12.8950 C   0  0  0  0  0  0  0  0  0  0  0  0
   23.6120   26.8090   17.2780 C   0  0  0  0  0  0  0  0  0  0  0  0
   24.5030   27.6950   17.4860 O   0  0  0  0  0  0  0  0  0  0  0  0
   23.0520   26.0380   18.1040 O   0  0  0  0  0  1  0  0  0  0  0  0
   18.9578   23.4269   13.8569 H   0  0  0  0  0  0  0  0  0  0  0  0
   20.5118   25.3503   14.1545 H   0  0  0  0  0  0  0  0  0  0  0  0
   21.1927   26.2619   12.0123 H   0  0  0  0  0  0  0  0  0  0  0  0
   18.9920   25.2670   12.1631 H   0  0  0  0  0  0  0  0  0  0  0  0
   20.2568   22.6125   11.2306 H   0  0  0  0  0  0  0  0  0  0  0  0
   24.8317   23.9650   12.3017 H   0  0  0  0  0  0  0  0  0  0  0  0
   24.1976   23.3252   10.7476 H   0  0  0  0  0  0  0  0  0  0  0  0
   25.3597   24.6949   10.7476 H   0  0  0  0  0  0  0  0  0  0  0  0
   17.3116   25.0201    8.2235 H   0  0  0  0  0  0  0  0  0  0  0  0
   18.1927   26.5524    7.9035 H   0  0  0  0  0  0  0  0  0  0  0  0
   19.0789   24.9899    7.9035 H   0  0  0  0  0  0  0  0  0  0  0  0
   16.6670   21.0360   11.8462 H   0  0  0  0  0  0  0  0  0  0  0  0
   15.9219   21.6152   10.3179 H   0  0  0  0  0  0  0  0  0  0  0  0
   16.9329   20.1305   10.3179 H   0  0  0  0  0  0  0  0  0  0  0  0
   18.6935   21.0272   13.3389 H   0  0  0  0  0  0  0  0  0  0  0  0
   20.4937   20.9101   13.0434 H   0  0  0  0  0  0  0  0  0  0  0  0
   21.5547   20.7461   17.2823 H   0  0  0  0  0  0  0  0  0  0  0  0
   22.9367   20.7055   16.1355 H   0  0  0  0  0  0  0  0  0  0  0  0
   21.8104   22.1048   16.1355 H   0  0  0  0  0  0  0  0  0  0  0  0
   21.5677   25.2674   15.9372 H   0  0  0  0  0  0  0  0  0  0  0  0
   23.2106   24.5439   16.0394 H   0  0  0  0  0  0  0  0  0  0  0  0
   22.4220   27.4418   15.5424 H   0  0  0  0  0  0  0  0  0  0  0  0
   24.2856   27.7938   14.2863 H   0  0  0  0  0  0  0  0  0  0  0  0
   26.9675   28.4546   13.3048 H   0  0  0  0  0  0  0  0  0  0  0  0
   27.0951   27.9186   15.0096 H   0  0  0  0  0  0  0  0  0  0  0  0
   29.0529   27.8543   13.1894 H   0  0  0  0  0  0  0  0  0  0  0  0
   29.3446   28.2672   16.1675 H   0  0  0  0  0  0  0  0  0  0  0  0
   30.5189   27.0432   18.0125 H   0  0  0  0  0  0  0  0  0  0  0  0
   31.0588   24.6239   17.7800 H   0  0  0  0  0  0  0  0  0  0  0  0
   30.4482   23.3772   15.6958 H   0  0  0  0  0  0  0  0  0  0  0  0
   27.4955   26.4416   11.0119 H   0  0  0  0  0  0  0  0  0  0  0  0
   27.6160   24.1840    9.9358 H   0  0  0  0  0  0  0  0  0  0  0  0
   28.6766   22.2699   11.1267 H   0  0  0  0  0  0  0  0  0  0  0  0
   29.6372   22.5741   13.4194 H   0  0  0  0  0  0  0  0  0  0  0  0
  3  2  1  0
  4  3  1  0
  4  1  1  0
  5  4  1  0
  6  5  1  0
  7  6  1  0
  7  2  1  0
  8  5  1  0
  9  8  1  0
 10  9  2  0
 11  9  1  0
 12  6  1  0
 13 12  1  0
 14 13  2  0
 15 13  1  0
 16  7  1  0
 17 16  1  0
 18 17  2  0
 19 17  1  0
 20  2  1  0
 21 20  1  0
 23 21  1  0
 23 22  1  0
 24 23  2  0
 25  1  1  0
 26 25  1  0
 27 26  1  0
 28 27  1  0
 29 28  2  0
 30 28  1  0
 31 30  1  0
 32 31  1  0
 33 32  1  0
 34 33  2  0
 35 34  1  0
 36 35  2  0
 37 36  1  0
 38 37  2  0
 38 33  1  0
 39 38  1  0
 40 39  2  0
 40 32  1  0
 41 40  1  0
 42 41  2  0
 43 42  1  0
 44 43  2  0
 44 39  1  0
 45 26  1  0
 46 45  2  0
 47 45  1  0
  2 48  1  1
  4 49  1  1
  5 50  1  1
  6 51  1  1
  7 52  1  6
 11 53  1  0
 11 54  1  0
 11 55  1  0
 15 56  1  0
 15 57  1  0
 15 58  1  0
 19 59  1  0
 19 60  1  0
 19 61  1  0
 20 62  1  0
 20 63  1  0
 22 64  1  0
 22 65  1  0
 22 66  1  0
 25 67  1  0
 25 68  1  0
 26 69  1  6
 27 70  1  0
 31 71  1  0
 31 72  1  0
 32 73  1  0
 34 74  1  0
 35 75  1  0
 36 76  1  0
 37 77  1  0
 41 78  1  0
 42 79  1  0
 43 80  1  0
 44 81  1  0
M  CHG  1  47  -1
M  END
$$$$
=
     RDKit          3D

 38 39  0  0  0  0  0  0  0  0999 V2000
   19.1460   14.3150    4.2800 S   0  0  0  0  0  6  0  0  0  0  0  0
   19.5560   14.2380    5.6680 O   0  0  0  0  0  0  0  0  0  0  0  0
   19.3910   13.2260    3.3590 O   0  0  0  0  0  0  0  0  0  0  0  0
   17.3880   14.6010    4.2480 C   0  0  0  0  0  0  0  0  0  0  0  0
   16.8720   15.6880    4.9550 C   0  0  0  0  0  0  0  0  0  0  0  0
   15.4970   15.9170    4.9480 C   0  0  0  0  0  0  0  0  0  0  0  0
   14.6310   15.0690    4.2350 C   0  0  0  0  0  0  0  0  0  0  0  0
   15.1610   13.9740    3.5170 C   0  0  0  0  0  0  0  0  0  0  0  0
   16.5460   13.7490    3.5300 C   0  0  0  0  0  0  0  0  0  0  0  0
   14.2730   13.0430    2.7390 C   0  0  0  0  0  0  0  0  0  0  0  0
   13.1530   15.3510    4.2520 C   0  0  0  0  0  0  0  0  0  0  0  0
   20.7500   18.0230    4.1040 C   0  0  1  0  0  0  0  0  0  0  0  0
   20.8130   18.0970    2.5810 C   0  0  0  0  0  0  0  0  0  0  0  0
   19.5490   17.5210    1.9410 C   0  0  0  0  0  0  0  0  0  0  0  0
   18.7800   16.5950    2.8800 C   0  0  0  0  0  0  0  0  0  0  0  0
   19.7480   15.7650    3.6290 N   0  0  0  0  0  0  0  0  0  0  0  0
   20.5810   16.5790    4.5860 C   0  0  0  0  0  0  0  0  0  0  0  0
   22.5660   19.5220    4.2490 O   0  0  0  0  0  1  0  0  0  0  0  0
   21.9770   18.5720    4.8390 C   0  0  0  0  0  0  0  0  0  0  0  0
   22.2770   18.0030    5.9240 O   0  0  0  0  0  0  0  0  0  0  0  0
   17.5437   16.3575    5.5123 H   0  0  0  0  0  0  0  0  0  0  0  0
   15.0848   16.7704    5.5064 H   0  0  0  0  0  0  0  0  0  0  0  0
   16.9694   12.8998    2.9735 H   0  0  0  0  0  0  0  0  0  0  0  0
   13.6861   12.4276    3.4367 H   0  0  0  0  0  0  0  0  0  0  0  0
   13.5917   13.6300    2.1055 H   0  0  0  0  0  0  0  0  0  0  0  0
   14.8916   12.3902    2.1055 H   0  0  0  0  0  0  0  0  0  0  0  0
   12.8044   15.4175    5.2932 H   0  0  0  0  0  0  0  0  0  0  0  0
   12.9554   16.3030    3.7376 H   0  0  0  0  0  0  0  0  0  0  0  0
   12.6188   14.5386    3.7376 H   0  0  0  0  0  0  0  0  0  0  0  0
   19.8840   18.6571    4.3448 H   0  0  0  0  0  0  0  0  0  0  0  0
   20.9199   19.1490    2.2780 H   0  0  0  0  0  0  0  0  0  0  0  0
   21.6743   17.5032    2.2411 H   0  0  0  0  0  0  0  0  0  0  0  0
   18.8909   18.3535    1.6516 H   0  0  0  0  0  0  0  0  0  0  0  0
   19.8605   16.9255    1.0702 H   0  0  0  0  0  0  0  0  0  0  0  0
   18.1842   17.1943    3.5842 H   0  0  0  0  0  0  0  0  0  0  0  0
   18.1054   15.9494    2.2985 H   0  0  0  0  0  0  0  0  0  0  0  0
   20.0883   16.5869    5.5694 H   0  0  0  0  0  0  0  0  0  0  0  0
   21.5785   16.1196    4.6482 H   0  0  0  0  0  0  0  0  0  0  0  0
  2  1  2  0
  3  1  2  0
  4  1  1  0
  5  4  2  0
  6  5  1  0
  7  6  2  0
  8  7  1  0
  9  8  2  0
  9  4  1  0
 10  8  1  0
 11  7  1  0
 13 12  1  0
 14 13  1  0
 15 14  1  0
 16  1  1  0
 16 15  1  0
 17 16  1  0
 17 12  1  0
 19 12  1  0
 19 18  1  0
 20 19  2  0
  5 21  1  0
  6 22  1  0
  9 23  1  0
 10 24  1  0
 10 25  1  0
 10 26  1  0
 11 27  1  0
 11 28  1  0
 11 29  1  0
 12 30  1  1
 13 31  1  0
 13 32  1  0
 14 33  1  0
 14 34  1  0
 15 35  1  0
 15 36  1  0
 17 37  1  0
 17 38  1  0
M  CHG  1  18  -1
M  END
$$$$
=
     RDKit          3D

 23 24  0  0  0  0  0  0  0  0999 V2000
   17.8300   14.5230    4.1030 C   0  0  0  0  0  0  0  0  0  0  0  0
   17.7820   13.4570    3.2150 C   0  0  0  0  0  0  0  0  0  0  0  0
   16.6560   12.8460    2.7740 N   0  0  0  0  0  0  0  0  0  0  0  0
   15.4920   13.3010    3.2520 C   0  0  0  0  0  0  0  0  0  0  0  0
   15.4010   14.3650    4.1840 C   0  0  0  0  0  0  0  0  0  0  0  0
   16.6130   14.9740    4.6210 C   0  0  0  0  0  0  0  0  0  0  0  0
   14.1160   14.7580    4.6330 C   0  0  0  0  0  0  0  0  0  0  0  0
   12.9740   14.1200    4.1680 C   0  0  0  0  0  0  0  0  0  0  0  0
   13.0680   13.0840    3.2560 C   0  0  0  0  0  0  0  0  0  0  0  0
   14.3270   12.6860    2.8080 C   0  0  0  0  0  0  0  0  0  0  0  0
   11.7680   14.5070    4.6030 F   0  0  0  0  0  0  0  0  0  0  0  0
   16.5430   16.0450    5.6550 C   0  0  0  0  0  0  0  0  0  0  0  0
   16.5780   17.2430    5.2420 O   0  0  0  0  0  0  0  0  0  0  0  0
   16.4690   15.6610    6.8620 O   0  0  0  0  0  1  0  0  0  0  0  0
   19.5900   16.0140    3.5550 C   0  0  0  0  0  0  0  0  0  0  0  0
   19.0970   14.9600    4.3770 O   0  0  0  0  0  0  0  0  0  0  0  0
   18.7416   13.0752    2.8365 H   0  0  0  0  0  0  0  0  0  0  0  0
   14.0220   15.5789    5.3591 H   0  0  0  0  0  0  0  0  0  0  0  0
   12.1613   12.5808    2.8890 H   0  0  0  0  0  0  0  0  0  0  0  0
   14.4005   11.8622    2.0828 H   0  0  0  0  0  0  0  0  0  0  0  0
   19.9704   16.8273    4.1905 H   0  0  0  0  0  0  0  0  0  0  0  0
   20.4037   15.6337    2.9199 H   0  0  0  0  0  0  0  0  0  0  0  0
   18.7766   16.3948    2.9199 H   0  0  0  0  0  0  0  0  0  0  0  0
  2  1  2  0
  3  2  1  0
  4  3  2  0
  5  4  1  0
  6  5  2  0
  6  1  1  0
  7  5  1  0
  8  7  2  0
  9  8  1  0
 10  9  2  0
 10  4  1  0
 11  8  1  0
 12  6  1  0
 13 12  2  0
 14 12  1  0
 16 15  1  0
 16  1  1  0
  2 17  1  0
  7 18  1  0
  9 19  1  0
 10 20  1  0
 15 21  1  0
 15 22  1  0
 15 23  1  0
M  CHG  1  14  -1
M  END
$$$$
=
     RDKit          3D

 14 14  0  0  0  0  0  0  0  0999 V2000
   20.3630   16.8540    5.3200 N   0  0  0  0  0  0  0  0  0  0  0  0
   20.0910   15.8330    6.1630 C   0  0  0  0  0  0  0  0  0  0  0  0
   21.0930   15.4300    6.8850 N   0  0  0  0  0  0  0  0  0  0  0  0
   22.1240   16.2300    6.4770 N   0  0  0  0  0  0  0  0  0  0  0  0
   21.6920   17.1130    5.4930 C   0  0  0  0  0  0  0  0  0  0  0  0
   22.6840   18.2270    4.7710 S   0  0  0  0  0  0  0  0  0  0  0  0
   19.3920   17.4600    4.4030 C   0  0  0  0  0  0  0  0  0  0  0  0
   19.5130   15.7080    2.8100 O   0  0  0  0  0  1  0  0  0  0  0  0
   19.4970   16.9670    2.9480 C   0  0  0  0  0  0  0  0  0  0  0  0
   19.5220   17.8710    2.0670 O   0  0  0  0  0  0  0  0  0  0  0  0
   19.0928   15.3761    6.2327 H   0  0  0  0  0  0  0  0  0  0  0  0
   23.0846   16.1851    6.8461 H   0  0  0  0  0  0  0  0  0  0  0  0
   18.3813   17.2309    4.7717 H   0  0  0  0  0  0  0  0  0  0  0  0
   19.6080   18.5384    4.3852 H   0  0  0  0  0  0  0  0  0  0  0  0
  2  1  1  0
  3  2  2  0
  4  3  1  0
  5  1  1  0
  5  4  1  0
  6  5  2  0
  7  1  1  0
  9  8  1  0
  9  7  1  0
 10  9  2  0
  2 11  1  0
  4 12  1  0
  7 13  1  0
  7 14  1  0
M  CHG  1   8  -1
M  END
$$$$
=
     RDKit          3D

 21 22  0  0  0  0  0  0  0  0999 V2000
   12.8320   13.9190    3.8830 C   0  0  0  0  0  0  0  0  0  0  0  0
   13.1330   12.8040    3.1080 C   0  0  0  0  0  0  0  0  0  0  0  0
   14.4580   12.5060    2.7850 C   0  0  0  0  0  0  0  0  0  0  0  0
   15.4860   13.3470    3.2550 C   0  0  0  0  0  0  0  0  0  0  0  0
   15.2220   14.4750    4.0360 C   0  0  0  0  0  0  0  0  0  0  0  0
   13.8620   14.7500    4.3470 C   0  0  0  0  0  0  0  0  0  0  0  0
   16.4410   15.1790    4.3960 C   0  0  0  0  0  0  0  0  0  0  0  0
   16.4850   16.4250    5.2270 C   0  0  0  0  0  0  0  0  0  0  0  0
   17.5620   14.5490    3.8690 C   0  0  0  0  0  0  0  0  0  0  0  0
   17.1660   13.1560    2.9720 S   0  0  0  0  0  0  0  0  0  0  0  0
   19.0770   15.0340    4.0540 C   0  0  0  0  0  0  0  0  0  0  0  0
   19.5870   15.7120    3.1090 O   0  0  0  0  0  0  0  0  0  0  0  0
   19.6560   14.7030    5.1340 O   0  0  0  0  0  1  0  0  0  0  0  0
   10.3620   14.4550    4.4680 N   0  0  0  0  0  0  0  0  0  0  0  0
   11.4690   14.2190    4.2110 C   0  0  0  0  0  0  0  0  0  0  0  0
   12.3225   12.1534    2.7476 H   0  0  0  0  0  0  0  0  0  0  0  0
   14.6966   11.6251    2.1709 H   0  0  0  0  0  0  0  0  0  0  0  0
   13.6139   15.6283    4.9611 H   0  0  0  0  0  0  0  0  0  0  0  0
   16.4755   16.1551    6.2933 H   0  0  0  0  0  0  0  0  0  0  0  0
   17.4035   16.9856    4.9989 H   0  0  0  0  0  0  0  0  0  0  0  0
   15.6083   17.0490    4.9989 H   0  0  0  0  0  0  0  0  0  0  0  0
  2  1  2  0
  3  2  1  0
  4  3  2  0
  5  4  1  0
  6  5  2  0
  6  1  1  0
  7  5  1  0
  8  7  1  0
  9  7  2  0
 10  4  1  0
 10  9  1  0
 11  9  1  0
 12 11  2  0
 13 11  1  0
 15 14  3  0
 15  1  1  0
  2 16  1  0
  3 17  1  0
  6 18  1  0
  8 19  1  0
  8 20  1  0
  8 21  1  0
M  CHG  1  13  -1
M  END
$$$$
=
     RDKit          3D

 37 39  0  0  0  0  0  0  0  0999 V2000
   17.5340   14.9650    4.3420 C   0  0  0  0  0  0  0  0  0  0  0  0
   17.4450   15.7540    5.4270 N   0  0  0  0  0  0  0  0  0  0  0  0
   16.2170   15.8720    5.9370 C   0  0  0  0  0  0  0  0  0  0  0  0
   15.1040   15.2950    5.4660 N   0  0  0  0  0  0  0  0  0  0  0  0
   15.2310   14.5060    4.3710 C   0  0  0  0  0  0  0  0  0  0  0  0
   16.4610   14.3240    3.7650 C   0  0  0  0  0  0  0  0  0  0  0  0
   13.9840   13.8830    3.8710 C   0  0  0  0  0  0  0  0  0  0  0  0
   14.0240   12.8230    2.9460 C   0  0  0  0  0  0  0  0  0  0  0  0
   12.8550   12.2150    2.4770 C   0  0  0  0  0  0  0  0  0  0  0  0
   11.6120   12.6560    2.9240 C   0  0  0  0  0  0  0  0  0  0  0  0
   11.5180   13.7120    3.8390 C   0  0  0  0  0  0  0  0  0  0  0  0
   12.7090   14.3130    4.2920 C   0  0  0  0  0  0  0  0  0  0  0  0
   10.1700   14.2000    4.3350 C   0  0  0  0  0  0  0  0  0  0  0  0
    9.3380   14.5980    3.4610 O   0  0  0  0  0  0  0  0  0  0  0  0
    9.9760   14.1680    5.5920 O   0  0  0  0  0  1  0  0  0  0  0  0
   18.7600   14.7920    3.7020 O   0  0  0  0  0  0  0  0  0  0  0  0
   21.4530   17.0020    4.8050 C   0  0  0  0  0  0  0  0  0  0  0  0
   21.3060   18.0560    3.8960 C   0  0  0  0  0  0  0  0  0  0  0  0
   20.3150   18.0190    2.9120 C   0  0  0  0  0  0  0  0  0  0  0  0
   19.4630   16.9210    2.8290 C   0  0  0  0  0  0  0  0  0  0  0  0
   19.6220   15.8620    3.7230 C   0  0  0  0  0  0  0  0  0  0  0  0
   20.5980   15.9030    4.7220 C   0  0  0  0  0  0  0  0  0  0  0  0
   23.2380   18.3540    5.5970 C   0  0  0  0  0  0  0  0  0  0  0  0
   22.4570   17.1710    5.7200 O   0  0  0  0  0  0  0  0  0  0  0  0
   16.1088   16.5043    6.8306 H   0  0  0  0  0  0  0  0  0  0  0  0
   16.5760   13.6987    2.8674 H   0  0  0  0  0  0  0  0  0  0  0  0
   14.9984   12.4640    2.5831 H   0  0  0  0  0  0  0  0  0  0  0  0
   12.9175   11.3879    1.7545 H   0  0  0  0  0  0  0  0  0  0  0  0
   10.6963   12.1708    2.5553 H   0  0  0  0  0  0  0  0  0  0  0  0
   12.6415   15.1505    5.0019 H   0  0  0  0  0  0  0  0  0  0  0  0
   21.9789   18.9240    3.9571 H   0  0  0  0  0  0  0  0  0  0  0  0
   20.2082   18.8548    2.2049 H   0  0  0  0  0  0  0  0  0  0  0  0
   18.6718   16.8888    2.0655 H   0  0  0  0  0  0  0  0  0  0  0  0
   20.6916   15.0737    5.4386 H   0  0  0  0  0  0  0  0  0  0  0  0
   23.4886   18.7337    6.5985 H   0  0  0  0  0  0  0  0  0  0  0  0
   24.1641   18.1266    5.0487 H   0  0  0  0  0  0  0  0  0  0  0  0
   22.6650   19.1163    5.0487 H   0  0  0  0  0  0  0  0  0  0  0  0
  2  1  2  0
  3  2  1  0
  4  3  2  0
  5  4  1  0
  6  5  2  0
  6  1  1  0
  7  5  1  0
  8  7  2  0
  9  8  1  0
 10  9  2  0
 11 10  1  0
 12 11  2  0
 12  7  1  0
 13 11  1  0
 14 13  2  0
 15 13  1  0
 16  1  1  0
 18 17  2  0
 19 18  1  0
 20 19  2  0
 21 16  1  0
 21 20  1  0
 22 21  2  0
 22 17  1  0
 24 17  1  0
 24 23  1  0
  3 25  1  0
  6 26  1  0
  8 27  1  0
  9 28  1  0
 10 29  1  0
 12 30  1  0
 18 31  1  0
 19 32  1  0
 20 33  1  0
 22 34  1  0
 23 35  1  0
 23 36  1  0
 23 37  1  0
M  CHG  1  15  -1
M  END
$$$$
=
     RDKit          3D

 42 43  0  0  0  0  0  0  0  0999 V2000
   18.6450   15.1920    4.6210 C   0  0  2  0  0  0  0  0  0  0  0  0
   21.2810   17.9800    4.1380 C   0  0  0  0  0  0  0  0  0  0  0  0
   21.0950   18.2710    2.7870 C   0  0  0  0  0  0  0  0  0  0  0  0
   20.1310   17.5920    2.0450 C   0  0  0  0  0  0  0  0  0  0  0  0
   19.3500   16.6120    2.6580 C   0  0  0  0  0  0  0  0  0  0  0  0
   19.5200   16.2880    4.0170 C   0  0  0  0  0  0  0  0  0  0  0  0
   20.5040   16.9840    4.7400 C   0  0  0  0  0  0  0  0  0  0  0  0
   22.9610   18.0620    5.8080 C   0  0  0  0  0  0  0  0  0  0  0  0
   22.2500   18.7210    4.7620 O   0  0  0  0  0  0  0  0  0  0  0  0
   17.5070   14.9300    3.7570 N   0  0  0  0  0  0  0  0  0  0  0  0
   17.2090   13.6950    3.2760 C   0  0  0  0  0  0  0  0  0  0  0  0
   17.9680   12.7360    3.2570 O   0  0  0  0  0  0  0  0  0  0  0  0
   15.9330   13.6890    2.8230 O   0  0  0  0  0  0  0  0  0  0  0  0
   15.1150   12.6160    3.2880 C   0  0  0  0  0  0  0  0  0  0  0  0
   13.6900   13.0820    3.4540 C   0  0  0  0  0  0  0  0  0  0  0  0
   12.6490   12.4510    2.7590 C   0  0  0  0  0  0  0  0  0  0  0  0
   11.3290   12.8740    2.9240 C   0  0  0  0  0  0  0  0  0  0  0  0
   11.0360   13.9240    3.7930 C   0  0  0  0  0  0  0  0  0  0  0  0
   12.0620   14.5470    4.5030 C   0  0  0  0  0  0  0  0  0  0  0  0
   13.3830   14.1260    4.3380 C   0  0  0  0  0  0  0  0  0  0  0  0
   18.1960   15.3560    6.0760 C   0  0  0  0  0  0  0  0  0  0  0  0
   16.8690   16.0890    6.2490 C   0  0  0  0  0  0  0  0  0  0  0  0
   15.8860   15.3770    6.6040 O   0  0  0  0  0  0  0  0  0  0  0  0
   16.9150   17.3300    6.0120 O   0  0  0  0  0  1  0  0  0  0  0  0
   19.3214   14.3263    4.6751 H   0  0  0  0  0  0  0  0  0  0  0  0
   21.7135   19.0418    2.3039 H   0  0  0  0  0  0  0  0  0  0  0  0
   19.9863   17.8276    0.9803 H   0  0  0  0  0  0  0  0  0  0  0  0
   18.5871   16.0827    2.0682 H   0  0  0  0  0  0  0  0  0  0  0  0
   20.6666   16.7409    5.8004 H   0  0  0  0  0  0  0  0  0  0  0  0
   22.5859   18.4096    6.7819 H   0  0  0  0  0  0  0  0  0  0  0  0
   22.8122   16.9753    5.7244 H   0  0  0  0  0  0  0  0  0  0  0  0
   24.0333   18.2927    5.7244 H   0  0  0  0  0  0  0  0  0  0  0  0
   16.8970   15.7181    3.4967 H   0  0  0  0  0  0  0  0  0  0  0  0
   15.1457   11.7932    2.5586 H   0  0  0  0  0  0  0  0  0  0  0  0
   15.4952   12.2699    4.2604 H   0  0  0  0  0  0  0  0  0  0  0  0
   12.8739   11.6164    2.0786 H   0  0  0  0  0  0  0  0  0  0  0  0
   10.5195   12.3785    2.3680 H   0  0  0  0  0  0  0  0  0  0  0  0
    9.9964   14.2608    3.9186 H   0  0  0  0  0  0  0  0  0  0  0  0
   11.8303   15.3710    5.1938 H   0  0  0  0  0  0  0  0  0  0  0  0
   14.1879   14.6165    4.9051 H   0  0  0  0  0  0  0  0  0  0  0  0
   18.0959   14.3545    6.5198 H   0  0  0  0  0  0  0  0  0  0  0  0
   18.9608   15.9714    6.5723 H   0  0  0  0  0  0  0  0  0  0  0  0
  3  2  2  0
  4  3  1  0
  5  4  2  0
  6  1  1  0
  6  5  1  0
  7  6  2  0
  7  2  1  0
  9  2  1  0
  9  8  1  0
 10  1  1  0
 11 10  1  0
 12 11  2  0
 13 11  1  0
 14 13  1  0
 15 14  1  0
 16 15  2  0
 17 16  1  0
 18 17  2  0
 19 18  1  0
 20 19  2  0
 20 15  1  0
 21  1  1  0
 22 21  1  0
 23 22  2  0
 24 22  1  0
  1 25  1  1
  3 26  1  0
  4 27  1  0
  5 28  1  0
  7 29  1  0
  8 30  1  0
  8 31  1  0
  8 32  1  0
 10 33  1  0
 14 34  1  0
 14 35  1  0
 16 36  1  0
 17 37  1  0
 18 38  1  0
 19 39  1  0
 20 40  1  0
 21 41  1  0
 21 42  1  0
M  CHG  1  24  -1
M  END
$$$$
=
     RDKit          3D

 24 25  0  0  0  0  0  0  0  0999 V2000
   18.9070   15.7490    4.6170 C   0  0  0  0  0  0  0  0  0  0  0  0
   18.7120   16.8590    5.4480 C   0  0  0  0  0  0  0  0  0  0  0  0
   17.4250   17.2480    5.7990 C   0  0  0  0  0  0  0  0  0  0  0  0
   17.2430   18.3140    6.5910 F   0  0  0  0  0  0  0  0  0  0  0  0
   16.3130   16.5560    5.3340 C   0  0  0  0  0  0  0  0  0  0  0  0
   16.4850   15.4560    4.4870 C   0  0  0  0  0  0  0  0  0  0  0  0
   17.7820   15.0580    4.1300 C   0  0  0  0  0  0  0  0  0  0  0  0
   17.9850   13.9980    3.2800 O   0  0  0  0  0  0  0  0  0  0  0  0
   16.8520   13.1420    3.1940 C   0  0  0  0  0  0  0  0  0  0  0  0
   15.6430   13.8360    2.9050 O   0  0  0  0  0  0  0  0  0  0  0  0
   15.3040   14.6690    4.0090 C   0  0  0  0  0  0  0  0  0  0  0  0
   21.3850   15.4740    4.9580 C   0  0  0  0  0  0  0  0  0  0  0  0
   20.2660   15.3450    4.2290 C   0  0  0  0  0  0  0  0  0  0  0  0
   21.0710   15.3280    7.3140 O   0  0  0  0  0  1  0  0  0  0  0  0
   21.5560   16.0180    6.3790 C   0  0  0  0  0  0  0  0  0  0  0  0
   22.2080   17.1010    6.4270 O   0  0  0  0  0  0  0  0  0  0  0  0
   19.5783   17.4235    5.8233 H   0  0  0  0  0  0  0  0  0  0  0  0
   15.3020   16.8719    5.6307 H   0  0  0  0  0  0  0  0  0  0  0  0
   17.0307   12.4051    2.3971 H   0  0  0  0  0  0  0  0  0  0  0  0
   16.7275   12.6662    4.1779 H   0  0  0  0  0  0  0  0  0  0  0  0
   14.5113   15.3663    3.7002 H   0  0  0  0  0  0  0  0  0  0  0  0
   14.9616   14.0263    4.8334 H   0  0  0  0  0  0  0  0  0  0  0  0
   22.3106   15.1419    4.4650 H   0  0  0  0  0  0  0  0  0  0  0  0
   20.3775   14.8880    3.2346 H   0  0  0  0  0  0  0  0  0  0  0  0
  2  1  2  0
  3  2  1  0
  4  3  1  0
  5  3  2  0
  6  5  1  0
  7  6  2  0
  7  1  1  0
  8  7  1  0
  9  8  1  0
 10  9  1  0
 11 10  1  0
 11  6  1  0
 13 12  2  0
 13  1  1  0
 15 12  1  0
 15 14  1  0
 16 15  2  0
  2 17  1  0
  5 18  1  0
  9 19  1  0
  9 20  1  0
 11 21  1  0
 11 22  1  0
 12 23  1  0
 13 24  1  0
M  CHG  1  14  -1
M  END
$$$$
=
     RDKit          3D

 29 31  0  0  0  0  0  0  0  0999 V2000
   17.8050   15.5260    4.1950 N   0  0  0  0  0  0  0  0  0  0  0  0
   19.0930   15.8870    3.9090 N   0  0  0  0  0  0  0  0  0  0  0  0
   19.3880   16.9040    4.6630 C   0  0  0  0  0  0  0  0  0  0  0  0
   18.2420   17.4430    5.4660 C   0  0  0  0  0  0  0  0  0  0  0  0
   17.2810   16.2720    5.3560 C   0  0  2  0  0  0  0  0  0  0  0  0
   11.7270   13.7500    3.7640 S   0  0  0  0  0  0  0  0  0  0  0  0
   13.3760   13.7500    3.5870 C   0  0  0  0  0  0  0  0  0  0  0  0
   14.0520   12.7970    2.8910 N   0  0  0  0  0  0  0  0  0  0  0  0
   15.4160   12.8790    2.8460 C   0  0  0  0  0  0  0  0  0  0  0  0
   16.1220   12.0320    2.3220 O   0  0  0  0  0  0  0  0  0  0  0  0
   15.8660   14.1060    3.5560 C   0  0  0  0  0  0  0  0  0  0  0  0
   17.1560   14.4560    3.6060 C   0  0  0  0  0  0  0  0  0  0  0  0
   14.4980   14.9100    4.2430 S   0  0  0  0  0  0  0  0  0  0  0  0
   20.6850   17.5470    4.6790 C   0  0  0  0  0  0  0  0  0  0  0  0
   21.1850   18.5040    3.8140 C   0  0  0  0  0  0  0  0  0  0  0  0
   22.5140   18.9050    4.1420 C   0  0  0  0  0  0  0  0  0  0  0  0
   22.9900   18.2400    5.2480 C   0  0  0  0  0  0  0  0  0  0  0  0
   21.8400   17.1460    5.8820 S   0  0  0  0  0  0  0  0  0  0  0  0
   17.2110   15.4360    6.6580 C   0  0  0  0  0  0  0  0  0  0  0  0
   18.3130   14.9200    7.0180 O   0  0  0  0  0  0  0  0  0  0  0  0
   16.0690   15.2990    7.1890 O   0  0  0  0  0  1  0  0  0  0  0  0
   18.5297   17.6403    6.5092 H   0  0  0  0  0  0  0  0  0  0  0  0
   17.8431   18.4082    5.1205 H   0  0  0  0  0  0  0  0  0  0  0  0
   16.2334   16.5767    5.2154 H   0  0  0  0  0  0  0  0  0  0  0  0
   13.5509   12.0355    2.4116 H   0  0  0  0  0  0  0  0  0  0  0  0
   17.8274   13.7619    3.0793 H   0  0  0  0  0  0  0  0  0  0  0  0
   20.6182   18.9120    2.9641 H   0  0  0  0  0  0  0  0  0  0  0  0
   23.0886   19.6551    3.5788 H   0  0  0  0  0  0  0  0  0  0  0  0
   23.9923   18.3941    5.6741 H   0  0  0  0  0  0  0  0  0  0  0  0
  2  1  1  0
  3  2  2  0
  4  3  1  0
  5  1  1  0
  5  4  1  0
  7  6  2  0
  8  7  1  0
  9  8  1  0
 10  9  2  0
 11  9  1  0
 12 11  2  0
 12  1  1  0
 13 11  1  0
 13  7  1  0
 14  3  1  0
 15 14  2  0
 16 15  1  0
 17 16  2  0
 18 14  1  0
 18 17  1  0
 19  5  1  0
 20 19  2  0
 21 19  1  0
  4 22  1  0
  4 23  1  0
  5 24  1  6
  8 25  1  0
 12 26  1  0
 15 27  1  0
 16 28  1  0
 17 29  1  0
M  CHG  1  21  -1
M  END
$$$$
=
     RDKit          3D

 24 25  0  0  0  0  0  0  0  0999 V2000
   20.9690   16.9420    4.6870 C   0  0  0  0  0  0  0  0  0  0  0  0
   20.2930   17.5310    3.6440 C   0  0  0  0  0  0  0  0  0  0  0  0
   19.1790   16.8410    3.1860 N   0  0  0  0  0  0  0  0  0  0  0  0
   19.0160   15.7490    3.9100 C   0  0  0  0  0  0  0  0  0  0  0  0
   20.2100   15.4840    5.1290 S   0  0  0  0  0  0  0  0  0  0  0  0
   22.8160   18.4940    4.7130 O   0  0  0  0  0  1  0  0  0  0  0  0
   22.2540   17.5480    5.3470 C   0  0  0  0  0  0  0  0  0  0  0  0
   22.6240   17.0460    6.4510 O   0  0  0  0  0  0  0  0  0  0  0  0
   17.9410   14.7230    3.7080 C   0  0  0  0  0  0  0  0  0  0  0  0
   16.6470   15.3300    3.8230 O   0  0  0  0  0  0  0  0  0  0  0  0
   15.5430   14.5370    3.6810 C   0  0  0  0  0  0  0  0  0  0  0  0
   15.7480   13.3870    2.9120 C   0  0  0  0  0  0  0  0  0  0  0  0
   14.7070   12.4870    2.6810 C   0  0  0  0  0  0  0  0  0  0  0  0
   13.4430   12.7400    3.2100 C   0  0  0  0  0  0  0  0  0  0  0  0
   13.2270   13.8910    3.9640 C   0  0  0  0  0  0  0  0  0  0  0  0
   14.2720   14.7900    4.1970 C   0  0  0  0  0  0  0  0  0  0  0  0
   20.6139   18.4858    3.2020 H   0  0  0  0  0  0  0  0  0  0  0  0
   18.0462   14.2792    2.7070 H   0  0  0  0  0  0  0  0  0  0  0  0
   18.0407   13.9435    4.4777 H   0  0  0  0  0  0  0  0  0  0  0  0
   16.7419   13.1896    2.4841 H   0  0  0  0  0  0  0  0  0  0  0  0
   14.8836   11.5807    2.0832 H   0  0  0  0  0  0  0  0  0  0  0  0
   12.6188   12.0334    3.0328 H   0  0  0  0  0  0  0  0  0  0  0  0
   12.2285   14.0938    4.3785 H   0  0  0  0  0  0  0  0  0  0  0  0
   14.0914   15.6994    4.7889 H   0  0  0  0  0  0  0  0  0  0  0  0
  2  1  2  0
  3  2  1  0
  4  3  2  0
  5  4  1  0
  5  1  1  0
  7  1  1  0
  7  6  1  0
  8  7  2  0
  9  4  1  0
 10  9  1  0
 11 10  1  0
 12 11  2  0
 13 12  1  0
 14 13  2  0
 15 14  1  0
 16 15  2  0
 16 11  1  0
  2 17  1  0
  9 18  1  0
  9 19  1  0
 12 20  1  0
 13 21  1  0
 14 22  1  0
 15 23  1  0
 16 24  1  0
M  CHG  1   6  -1
M  END
$$$$
=
     RDKit          3D

 36 37  0  0  0  0  0  0  0  0999 V2000
   15.1310   12.6950    3.1790 C   0  0  0  0  0  0  0  0  0  0  0  0
   15.7210   12.2240    2.2220 O   0  0  0  0  0  0  0  0  0  0  0  0
   15.4850   13.9610    3.7220 N   0  0  0  0  0  4  0  0  0  0  0  0
   16.6280   14.6020    3.6820 C   0  0  0  0  0  0  0  0  0  0  0  0
   18.0280   14.0370    2.8230 S   0  0  0  0  0  0  0  0  0  0  0  0
   19.1480   15.1200    3.7310 C   0  0  1  0  0  0  0  0  0  0  0  0
   18.2640   16.1920    4.4070 C   0  0  1  0  0  0  0  0  0  0  0  0
   16.8460   15.7560    4.3210 N   0  0  0  0  0  0  0  0  0  0  0  0
   15.8140   16.5100    5.0490 C   0  0  0  0  0  0  0  0  0  0  0  0
   18.7110   16.4010    5.8570 C   0  0  0  0  0  0  0  0  0  0  0  0
   20.3350   15.7100    5.9160 S   0  0  0  0  0  6  0  0  0  0  0  0
   21.2230   16.6330    5.2350 O   0  0  0  0  0  0  0  0  0  0  0  0
   20.6240   15.1960    7.2340 O   0  0  0  0  0  0  0  0  0  0  0  0
   19.9520   14.3920    4.7970 C   0  0  0  0  0  0  0  0  0  0  0  0
   13.9820   12.0190    3.8930 C   0  0  0  0  0  0  0  0  0  0  0  0
   12.6410   12.0440    3.1440 C   0  0  0  0  0  0  0  0  0  0  0  0
   11.7830   13.3150    3.2040 C   0  0  0  0  0  0  0  0  0  0  0  0
   12.6760   15.1290    4.4360 O   0  0  0  0  0  1  0  0  0  0  0  0
   11.8340   14.1760    4.4570 C   0  0  0  0  0  0  0  0  0  0  0  0
   11.2520   13.7130    5.4760 O   0  0  0  0  0  0  0  0  0  0  0  0
   14.7283   14.4484    4.2228 H   0  0  0  0  0  0  0  0  0  0  0  0
   19.8814   15.5455    3.0303 H   0  0  0  0  0  0  0  0  0  0  0  0
   18.3667   17.1595    3.8937 H   0  0  0  0  0  0  0  0  0  0  0  0
   15.9712   16.3951    6.1316 H   0  0  0  0  0  0  0  0  0  0  0  0
   15.8794   17.5746    4.7799 H   0  0  0  0  0  0  0  0  0  0  0  0
   14.8197   16.1242    4.7799 H   0  0  0  0  0  0  0  0  0  0  0  0
   18.7337   17.4719    6.1074 H   0  0  0  0  0  0  0  0  0  0  0  0
   18.0276   15.9312    6.5796 H   0  0  0  0  0  0  0  0  0  0  0  0
   19.3533   13.6103    5.2874 H   0  0  0  0  0  0  0  0  0  0  0  0
   20.8352   13.8638    4.4086 H   0  0  0  0  0  0  0  0  0  0  0  0
   14.2578   10.9676    4.0621 H   0  0  0  0  0  0  0  0  0  0  0  0
   13.8235   12.5866    4.8218 H   0  0  0  0  0  0  0  0  0  0  0  0
   12.8598   11.8517    2.0833 H   0  0  0  0  0  0  0  0  0  0  0  0
   12.0329   11.2885    3.6630 H   0  0  0  0  0  0  0  0  0  0  0  0
   12.0899   13.9521    2.3614 H   0  0  0  0  0  0  0  0  0  0  0  0
   10.7495   12.9391    3.1819 H   0  0  0  0  0  0  0  0  0  0  0  0
  2  1  2  0
  3  1  1  0
  4  3  2  0
  5  4  1  0
  6  5  1  0
  7  6  1  0
  8  7  1  0
  8  4  1  0
  9  8  1  0
 10  7  1  0
 11 10  1  0
 12 11  2  0
 13 11  2  0
 14  6  1  0
 14 11  1  0
 15  1  1  0
 16 15  1  0
 17 16  1  0
 19 18  1  0
 19 17  1  0
 20 19  2  0
  3 21  1  0
  6 22  1  6
  7 23  1  6
  9 24  1  0
  9 25  1  0
  9 26  1  0
 10 27  1  0
 10 28  1  0
 14 29  1  0
 14 30  1  0
 15 31  1  0
 15 32  1  0
 16 33  1  0
 16 34  1  0
 17 35  1  0
 17 36  1  0
M  CHG  2   3   1  18  -1
M  END
$$$$
=
     RDKit          3D

 27 27  0  0  0  0  0  0  0  0999 V2000
   17.4040   15.5310    4.1150 C   0  0  0  0  0  0  0  0  0  0  0  0
   16.9310   14.4480    3.3680 C   0  0  0  0  0  0  0  0  0  0  0  0
   15.6300   13.9390    3.5620 C   0  0  0  0  0  0  0  0  0  0  0  0
   14.8070   14.5430    4.5270 C   0  0  0  0  0  0  0  0  0  0  0  0
   15.2680   15.6240    5.2780 C   0  0  0  0  0  0  0  0  0  0  0  0
   16.5550   16.1060    5.0650 C   0  0  0  0  0  0  0  0  0  0  0  0
   16.9760   17.1490    5.8010 F   0  0  0  0  0  0  0  0  0  0  0  0
   15.1340   12.7620    2.7440 C   0  0  0  0  0  0  0  0  0  0  0  0
   16.0140   12.0570    2.1570 O   0  0  0  0  0  0  0  0  0  0  0  0
   13.8780   12.5710    2.7080 O   0  0  0  0  0  1  0  0  0  0  0  0
   18.6470   16.0960    4.0000 O   0  0  0  0  0  0  0  0  0  0  0  0
   19.7650   15.2200    4.1360 C   0  0  0  0  0  0  0  0  0  0  0  0
   20.1510   14.8980    6.6020 C   0  0  0  0  0  0  0  0  0  0  0  0
   20.5920   15.6580    5.3540 C   0  0  0  0  0  0  0  0  0  0  0  0
   20.4860   17.1670    5.5870 C   0  0  0  0  0  0  0  0  0  0  0  0
   17.5855   13.9844    2.6152 H   0  0  0  0  0  0  0  0  0  0  0  0
   13.7892   14.1597    4.6919 H   0  0  0  0  0  0  0  0  0  0  0  0
   14.6188   16.0917    6.0328 H   0  0  0  0  0  0  0  0  0  0  0  0
   19.4110   14.1887    4.2810 H   0  0  0  0  0  0  0  0  0  0  0  0
   20.3852   15.2621    3.2285 H   0  0  0  0  0  0  0  0  0  0  0  0
   20.4707   15.4489    7.4989 H   0  0  0  0  0  0  0  0  0  0  0  0
   19.0554   14.7995    6.6033 H   0  0  0  0  0  0  0  0  0  0  0  0
   20.6091   13.8979    6.6033 H   0  0  0  0  0  0  0  0  0  0  0  0
   21.6456   15.4197    5.1461 H   0  0  0  0  0  0  0  0  0  0  0  0
   20.4717   17.3710    6.6678 H   0  0  0  0  0  0  0  0  0  0  0  0
   21.3510   17.6702    5.1303 H   0  0  0  0  0  0  0  0  0  0  0  0
   19.5591   17.5443    5.1303 H   0  0  0  0  0  0  0  0  0  0  0  0
  2  1  2  0
  3  2  1  0
  4  3  2  0
  5  4  1  0
  6  5  2  0
  6  1  1  0
  7  6  1  0
  8  3  1  0
  9  8  2  0
 10  8  1  0
 11  1  1  0
 12 11  1  0
 14 12  1  0
 14 13  1  0
 15 14  1  0
  2 16  1  0
  4 17  1  0
  5 18  1  0
 12 19  1  0
 12 20  1  0
 13 21  1  0
 13 22  1  0
 13 23  1  0
 14 24  1  0
 15 25  1  0
 15 26  1  0
 15 27  1  0
M  CHG  1  10  -1
M  END
$$$$
=
     RDKit          3D

 26 27  0  0  0  0  0  0  0  0999 V2000
   19.8560   18.0090    2.2730 O   0  0  0  0  0  0  0  0  0  0  0  0
   20.3410   17.9820    3.4010 C   0  0  0  0  0  0  0  0  0  0  0  0
   21.8120   18.2020    3.6630 C   0  0  0  0  0  0  0  0  0  0  0  0
   21.8500   18.3990    5.1790 C   0  0  0  0  0  0  0  0  0  0  0  0
   20.6510   17.6170    5.7350 C   0  0  1  0  0  0  0  0  0  0  0  0
   19.5550   17.8650    4.6960 C   0  0  2  0  0  0  0  0  0  0  0  0
   18.3620   16.9420    4.7250 C   0  0  0  0  0  0  0  0  0  0  0  0
   17.4260   17.0580    5.7660 C   0  0  0  0  0  0  0  0  0  0  0  0
   16.3140   16.2160    5.8300 C   0  0  0  0  0  0  0  0  0  0  0  0
   16.1260   15.2350    4.8590 C   0  0  0  0  0  0  0  0  0  0  0  0
   17.0530   15.0950    3.8300 C   0  0  0  0  0  0  0  0  0  0  0  0
   18.1650   15.9400    3.7650 C   0  0  0  0  0  0  0  0  0  0  0  0
   21.1300   16.1750    5.9320 C   0  0  0  0  0  0  0  0  0  0  0  0
   21.4220   15.5410    4.8810 O   0  0  0  0  0  0  0  0  0  0  0  0
   21.2260   15.8170    7.1400 O   0  0  0  0  0  1  0  0  0  0  0  0
   22.4053   17.3265    3.3605 H   0  0  0  0  0  0  0  0  0  0  0  0
   22.2373   19.0456    3.0995 H   0  0  0  0  0  0  0  0  0  0  0  0
   22.7896   18.0040    5.5928 H   0  0  0  0  0  0  0  0  0  0  0  0
   21.7982   19.4640    5.4494 H   0  0  0  0  0  0  0  0  0  0  0  0
   20.2455   17.9070    6.7156 H   0  0  0  0  0  0  0  0  0  0  0  0
   18.9752   18.7777    4.8980 H   0  0  0  0  0  0  0  0  0  0  0  0
   17.5713   17.8236    6.5424 H   0  0  0  0  0  0  0  0  0  0  0  0
   15.5863   16.3273    6.6473 H   0  0  0  0  0  0  0  0  0  0  0  0
   15.2483   14.5735    4.9052 H   0  0  0  0  0  0  0  0  0  0  0  0
   16.9102   14.3170    3.0655 H   0  0  0  0  0  0  0  0  0  0  0  0
   18.8941   15.8169    2.9506 H   0  0  0  0  0  0  0  0  0  0  0  0
  2  1  2  0
  3  2  1  0
  4  3  1  0
  5  4  1  0
  6  2  1  0
  6  5  1  0
  7  6  1  0
  8  7  2  0
  9  8  1  0
 10  9  2  0
 11 10  1  0
 12 11  2  0
 12  7  1  0
 13  5  1  0
 14 13  2  0
 15 13  1  0
  3 16  1  0
  3 17  1  0
  4 18  1  0
  4 19  1  0
  5 20  1  1
  6 21  1  1
  8 22  1  0
  9 23  1  0
 10 24  1  0
 11 25  1  0
 12 26  1  0
M  CHG  1  15  -1
M  END
$$$$
=
     RDKit          3D

 62 64  0  0  0  0  0  0  0  0999 V2000
   26.1610   25.7300   13.3620 N   0  0  0  0  0  4  0  0  0  0  0  0
   25.0350   26.2210   12.4750 C   0  0  0  0  0  0  0  0  0  0  0  0
   27.4240   25.4990   12.5370 C   0  0  0  0  0  0  0  0  0  0  0  0
   28.4120   26.7270   15.9680 C   0  0  1  0  0  0  0  0  0  0  0  0
   27.9220   27.0210   14.6370 O   0  0  0  0  0  0  0  0  0  0  0  0
   26.5250   26.8350   14.4060 C   0  0  2  0  0  0  0  0  0  0  0  0
   25.6070   26.9130   15.6580 C   0  0  1  0  0  0  0  0  0  0  0  0
   26.2510   27.9070   16.6190 C   0  0  2  0  0  0  0  0  0  0  0  0
   27.6330   27.4390   17.0830 C   0  0  2  0  0  0  0  0  0  0  0  0
   29.1400   24.5450   15.3790 O   0  0  0  0  0  1  0  0  0  0  0  0
   28.4370   25.2020   16.1900 C   0  0  0  0  0  0  0  0  0  0  0  0
   27.6460   24.7810   17.0790 O   0  0  0  0  0  0  0  0  0  0  0  0
   28.3280   28.6290   17.5130 O   0  0  0  0  0  0  0  0  0  0  0  0
   25.3710   28.1240   17.7360 O   0  0  0  0  0  0  0  0  0  0  0  0
   24.2880   27.4000   15.3160 O   0  0  0  0  0  0  0  0  0  0  0  0
   25.7650   24.4160   14.0630 C   0  0  0  0  0  0  0  0  0  0  0  0
   24.2810   24.0300   13.9170 C   0  0  0  0  0  0  0  0  0  0  0  0
   23.6130   24.3310   15.1430 O   0  0  0  0  0  0  0  0  0  0  0  0
   22.1590   24.3410   15.1140 C   0  0  2  0  0  0  0  0  0  0  0  0
   21.7460   25.2590   13.9360 C   0  0  0  0  0  0  0  0  0  0  0  0
   21.6610   24.9920   16.4290 C   0  0  0  0  0  0  0  0  0  0  0  0
   20.3170   24.9040   16.8060 C   0  0  0  0  0  0  0  0  0  0  0  0
   19.8900   25.5300   17.9740 C   0  0  0  0  0  0  0  0  0  0  0  0
   20.8050   26.2380   18.7400 C   0  0  0  0  0  0  0  0  0  0  0  0
   22.1160   26.2900   18.3050 C   0  0  0  0  0  0  0  0  0  0  0  0
   22.5630   25.6900   17.1790 N   0  0  0  0  0  0  0  0  0  0  0  0
   21.6310   22.8940   15.0210 C   0  0  0  0  0  0  0  0  0  0  0  0
   21.9850   21.8980   15.9470 C   0  0  0  0  0  0  0  0  0  0  0  0
   21.4640   20.6040   15.8470 C   0  0  0  0  0  0  0  0  0  0  0  0
   20.5830   20.2780   14.8200 C   0  0  0  0  0  0  0  0  0  0  0  0
   20.2330   21.2410   13.8810 C   0  0  0  0  0  0  0  0  0  0  0  0
   20.7590   22.5300   13.9740 C   0  0  0  0  0  0  0  0  0  0  0  0
   24.2060   26.5825   13.1012 H   0  0  0  0  0  0  0  0  0  0  0  0
   25.3998   27.0418   11.8399 H   0  0  0  0  0  0  0  0  0  0  0  0
   24.6818   25.3952   11.8399 H   0  0  0  0  0  0  0  0  0  0  0  0
   28.2789   25.3426   13.2113 H   0  0  0  0  0  0  0  0  0  0  0  0
   27.2901   24.6104   11.9025 H   0  0  0  0  0  0  0  0  0  0  0  0
   27.6133   26.3774   11.9025 H   0  0  0  0  0  0  0  0  0  0  0  0
   29.4356   27.1252   16.0280 H   0  0  0  0  0  0  0  0  0  0  0  0
   26.2526   27.7615   13.8793 H   0  0  0  0  0  0  0  0  0  0  0  0
   25.4988   25.9106   16.0979 H   0  0  0  0  0  0  0  0  0  0  0  0
   26.4060   28.8583   16.0888 H   0  0  0  0  0  0  0  0  0  0  0  0
   27.5375   26.7011   17.8932 H   0  0  0  0  0  0  0  0  0  0  0  0
   28.3467   28.6609   18.5023 H   0  0  0  0  0  0  0  0  0  0  0  0
   25.8728   28.0003   18.5804 H   0  0  0  0  0  0  0  0  0  0  0  0
   23.7803   27.5875   16.1449 H   0  0  0  0  0  0  0  0  0  0  0  0
   26.3735   23.6042   13.6380 H   0  0  0  0  0  0  0  0  0  0  0  0
   25.9409   24.5721   15.1376 H   0  0  0  0  0  0  0  0  0  0  0  0
   23.8270   24.6044   13.0961 H   0  0  0  0  0  0  0  0  0  0  0  0
   24.1905   22.9572   13.6914 H   0  0  0  0  0  0  0  0  0  0  0  0
   21.3248   26.1953   14.3310 H   0  0  0  0  0  0  0  0  0  0  0  0
   22.6291   25.4852   13.3204 H   0  0  0  0  0  0  0  0  0  0  0  0
   20.9909   24.7482   13.3204 H   0  0  0  0  0  0  0  0  0  0  0  0
   19.6026   24.3444   16.1843 H   0  0  0  0  0  0  0  0  0  0  0  0
   18.8374   25.4639   18.2865 H   0  0  0  0  0  0  0  0  0  0  0  0
   20.4960   26.7434   19.6669 H   0  0  0  0  0  0  0  0  0  0  0  0
   22.8396   26.8539   18.9119 H   0  0  0  0  0  0  0  0  0  0  0  0
   22.6823   22.1398   16.7627 H   0  0  0  0  0  0  0  0  0  0  0  0
   21.7520   19.8398   16.5839 H   0  0  0  0  0  0  0  0  0  0  0  0
   20.1655   19.2626   14.7518 H   0  0  0  0  0  0  0  0  0  0  0  0
   19.5412   20.9869   13.0644 H   0  0  0  0  0  0  0  0  0  0  0  0
   20.4878   23.2782   13.2146 H   0  0  0  0  0  0  0  0  0  0  0  0
  2  1  1  0
  3  1  1  0
  5  4  1  0
  6  1  1  0
  6  5  1  0
  7  6  1  0
  8  7  1  0
  9  8  1  0
  9  4  1  0
 11 10  1  0
 11  4  1  0
 12 11  2  0
 13  9  1  0
 14  8  1  0
 15  7  1  0
 16  1  1  0
 17 16  1  0
 18 17  1  0
 19 18  1  1
 20 19  1  0
 21 19  1  0
 22 21  2  0
 23 22  1  0
 24 23  2  0
 25 24  1  0
 26 21  1  0
 26 25  2  0
 27 19  1  0
 28 27  2  0
 29 28  1  0
 30 29  2  0
 31 30  1  0
 32 31  2  0
 32 27  1  0
  2 33  1  0
  2 34  1  0
  2 35  1  0
  3 36  1  0
  3 37  1  0
  3 38  1  0
  4 39  1  6
  6 40  1  6
  7 41  1  1
  8 42  1  6
  9 43  1  1
 13 44  1  0
 14 45  1  0
 15 46  1  0
 16 47  1  0
 16 48  1  0
 17 49  1  0
 17 50  1  0
 20 51  1  0
 20 52  1  0
 20 53  1  0
 22 54  1  0
 23 55  1  0
 24 56  1  0
 25 57  1  0
 28 58  1  0
 29 59  1  0
 30 60  1  0
 31 61  1  0
 32 62  1  0
M  CHG  2   1   1  10  -1
M  END
$$$$
=
     RDKit          3D

 19 23  0  0  0  0  0  0  0  0999 V2000
   17.7470   15.4320    4.4040 C   0  0  1  0  0  0  0  0  0  0  0  0
   17.9600   15.9460    5.8240 C   0  0  2  0  0  0  0  0  0  0  0  0
   18.8850   17.0490    5.2820 C   0  0  2  0  0  0  0  0  0  0  0  0
   18.6530   16.5290    3.8530 C   0  0  1  0  0  0  0  0  0  0  0  0
   19.8660   15.5960    4.0030 C   0  0  2  0  0  0  0  0  0  0  0  0
   18.9410   14.4940    4.5460 C   0  0  1  0  0  0  0  0  0  0  0  0
   19.1740   15.0130    5.9750 C   0  0  1  0  0  0  0  0  0  0  0  0
   20.0800   16.1110    5.4240 C   0  0  2  0  0  0  0  0  0  0  0  0
   21.3810   16.5110    5.9710 C   0  0  0  0  0  0  0  0  0  0  0  0
   22.0940   17.2920    5.2690 O   0  0  0  0  0  0  0  0  0  0  0  0
   21.6920   16.0410    7.1080 O   0  0  0  0  0  1  0  0  0  0  0  0
   15.4660   14.7670    3.4070 N   0  0  0  0  0  0  0  0  0  0  0  0
   16.4930   15.0670    3.8560 C   0  0  0  0  0  0  0  0  0  0  0  0
   17.1684   16.0893    6.5742 H   0  0  0  0  0  0  0  0  0  0  0  0
   18.8654   18.1054    5.5879 H   0  0  0  0  0  0  0  0  0  0  0  0
   18.4341   17.1541    2.9748 H   0  0  0  0  0  0  0  0  0  0  0  0
   20.6570   15.4520    3.2523 H   0  0  0  0  0  0  0  0  0  0  0  0
   18.9600   13.4375    4.2404 H   0  0  0  0  0  0  0  0  0  0  0  0
   19.3935   14.3879    6.8531 H   0  0  0  0  0  0  0  0  0  0  0  0
  2  1  1  0
  3  2  1  0
  4  1  1  0
  4  3  1  0
  5  4  1  0
  6  5  1  0
  6  1  1  0
  7  6  1  0
  7  2  1  0
  8  5  1  0
  8  7  1  0
  8  3  1  0
  8  9  1  1
 10  9  2  0
 11  9  1  0
 13 12  3  0
  1 13  1  6
  2 14  1  1
  3 15  1  6
  4 16  1  6
  5 17  1  6
  6 18  1  1
  7 19  1  1
M  CHG  1  11  -1
M  END
$$$$
=
     RDKit          3D

 42 43  0  0  0  0  0  0  0  0999 V2000
   15.3330   14.5160    3.5530 C   0  0  1  0  0  0  0  0  0  0  0  0
   15.6420   15.6490    4.5500 C   0  0  0  0  0  0  0  0  0  0  0  0
   17.0680   15.5840    4.7840 N   0  0  0  0  0  0  0  0  0  0  0  0
   17.6410   14.3750    4.2150 C   0  0  0  0  0  0  0  0  0  0  0  0
   16.4360   13.5000    3.9010 C   0  0  2  0  0  0  0  0  0  0  0  0
   17.7620   16.5870    5.4030 C   0  0  0  0  0  0  0  0  0  0  0  0
   17.2380   17.6010    5.8490 O   0  0  0  0  0  0  0  0  0  0  0  0
   12.1350   12.4590    3.0360 C   0  0  0  0  0  0  0  0  0  0  0  0
   11.1980   13.1940    3.7450 C   0  0  0  0  0  0  0  0  0  0  0  0
   11.5930   14.3640    4.3880 C   0  0  0  0  0  0  0  0  0  0  0  0
   12.9270   14.7830    4.3230 C   0  0  0  0  0  0  0  0  0  0  0  0
   13.8930   14.0290    3.6310 C   0  0  0  0  0  0  0  0  0  0  0  0
   13.4680   12.8660    2.9720 C   0  0  0  0  0  0  0  0  0  0  0  0
   11.7180   11.3290    2.3930 O   0  0  0  0  0  0  0  0  0  0  0  0
   16.8560   12.5760    2.7680 C   0  0  0  0  0  0  0  0  0  0  0  0
   16.2030   12.6660    1.6940 O   0  0  0  0  0  0  0  0  0  0  0  0
   17.8190   11.8090    3.0560 O   0  0  0  0  0  1  0  0  0  0  0  0
   19.0910   16.3150    5.4620 O   0  0  0  0  0  0  0  0  0  0  0  0
   20.0610   17.1680    4.8090 C   0  0  0  0  0  0  0  0  0  0  0  0
   21.3660   16.3570    4.8300 C   0  0  0  0  0  0  0  0  0  0  0  0
   20.2800   18.4660    5.5940 C   0  0  0  0  0  0  0  0  0  0  0  0
   19.6770   17.4380    3.3500 C   0  0  0  0  0  0  0  0  0  0  0  0
   15.3663   14.7971    2.4900 H   0  0  0  0  0  0  0  0  0  0  0  0
   15.3675   16.6238    4.1204 H   0  0  0  0  0  0  0  0  0  0  0  0
   15.0711   15.5363    5.4835 H   0  0  0  0  0  0  0  0  0  0  0  0
   18.2051   14.6048    3.2990 H   0  0  0  0  0  0  0  0  0  0  0  0
   18.3504   13.8844    4.8976 H   0  0  0  0  0  0  0  0  0  0  0  0
   16.0678   12.8424    4.7023 H   0  0  0  0  0  0  0  0  0  0  0  0
   10.1525   12.8563    3.7992 H   0  0  0  0  0  0  0  0  0  0  0  0
   10.8564   14.9594    4.9474 H   0  0  0  0  0  0  0  0  0  0  0  0
   13.2253   15.7173    4.8212 H   0  0  0  0  0  0  0  0  0  0  0  0
   14.1928   12.2690    2.3991 H   0  0  0  0  0  0  0  0  0  0  0  0
   12.3655   10.7844    1.8789 H   0  0  0  0  0  0  0  0  0  0  0  0
   21.6654   16.1710    5.8720 H   0  0  0  0  0  0  0  0  0  0  0  0
   21.2093   15.3969    4.3165 H   0  0  0  0  0  0  0  0  0  0  0  0
   22.1575   16.9226    4.3165 H   0  0  0  0  0  0  0  0  0  0  0  0
   20.2440   18.2527    6.6725 H   0  0  0  0  0  0  0  0  0  0  0  0
   21.2622   18.8890    5.3364 H   0  0  0  0  0  0  0  0  0  0  0  0
   19.4910   19.1878    5.3364 H   0  0  0  0  0  0  0  0  0  0  0  0
   18.7775   18.0704    3.3186 H   0  0  0  0  0  0  0  0  0  0  0  0
   20.5055   17.9534    2.8421 H   0  0  0  0  0  0  0  0  0  0  0  0
   19.4723   16.4840    2.8421 H   0  0  0  0  0  0  0  0  0  0  0  0
  2  1  1  0
  3  2  1  0
  4  3  1  0
  5  1  1  0
  5  4  1  0
  6  3  1  0
  7  6  2  0
  9  8  2  0
 10  9  1  0
 11 10  2  0
 12 11  1  0
 12  1  1  0
 13 12  2  0
 13  8  1  0
 14  8  1  0
 15  5  1  0
 16 15  2  0
 17 15  1  0
 18  6  1  0
 19 18  1  0
 20 19  1  0
 21 19  1  0
 22 19  1  0
  1 23  1  6
  2 24  1  0
  2 25  1  0
  4 26  1  0
  4 27  1  0
  5 28  1  1
  9 29  1  0
 10 30  1  0
 11 31  1  0
 13 32  1  0
 14 33  1  0
 20 34  1  0
 20 35  1  0
 20 36  1  0
 21 37  1  0
 21 38  1  0
 21 39  1  0
 22 40  1  0
 22 41  1  0
 22 42  1  0
M  CHG  1  17  -1
M  END
$$$$
=
     RDKit          3D

 31 31  0  0  0  0  0  0  0  0999 V2000
   19.7680   15.9340    3.9020 C   0  0  1  0  0  0  0  0  0  0  0  0
   19.4900   17.0750    2.9140 C   0  0  0  0  0  0  0  0  0  0  0  0
   20.6320   18.0860    2.8630 C   0  0  0  0  0  0  0  0  0  0  0  0
   21.2130   18.4160    4.2360 C   0  0  0  0  0  0  0  0  0  0  0  0
   20.3060   17.9760    5.3790 C   0  0  0  0  0  0  0  0  0  0  0  0
   20.0070   16.4690    5.3390 C   0  0  2  0  0  0  0  0  0  0  0  0
   17.3650   15.5110    3.7550 N   0  0  0  0  0  0  0  0  0  0  0  0
   18.6050   14.9300    3.8690 C   0  0  0  0  0  0  0  0  0  0  0  0
   18.7650   13.7120    3.9480 O   0  0  0  0  0  0  0  0  0  0  0  0
   16.2010   14.7210    3.4750 C   0  0  0  0  0  0  0  0  0  0  0  0
   15.4770   15.3500    5.7980 C   0  0  0  0  0  0  0  0  0  0  0  0
   15.1870   14.9880    4.5410 C   0  0  0  0  0  0  0  0  0  0  0  0
   21.0970   15.5940    5.9990 C   0  0  0  0  0  0  0  0  0  0  0  0
   21.0430   15.4530    7.2480 O   0  0  0  0  0  0  0  0  0  0  0  0
   21.9340   15.1050    5.1800 O   0  0  0  0  0  1  0  0  0  0  0  0
   20.6916   15.4216    3.5948 H   0  0  0  0  0  0  0  0  0  0  0  0
   19.3503   16.6478    1.9100 H   0  0  0  0  0  0  0  0  0  0  0  0
   18.5870   17.6031    3.2542 H   0  0  0  0  0  0  0  0  0  0  0  0
   21.4351   17.6732    2.2348 H   0  0  0  0  0  0  0  0  0  0  0  0
   20.2204   19.0197    2.4522 H   0  0  0  0  0  0  0  0  0  0  0  0
   22.1824   17.9065    4.3397 H   0  0  0  0  0  0  0  0  0  0  0  0
   21.3196   19.5091    4.2980 H   0  0  0  0  0  0  0  0  0  0  0  0
   20.7988   18.2137    6.3333 H   0  0  0  0  0  0  0  0  0  0  0  0
   19.3507   18.5116    5.2760 H   0  0  0  0  0  0  0  0  0  0  0  0
   19.0810   16.3824    5.9263 H   0  0  0  0  0  0  0  0  0  0  0  0
   17.2699   16.5298    3.8725 H   0  0  0  0  0  0  0  0  0  0  0  0
   15.7904   14.9981    2.4929 H   0  0  0  0  0  0  0  0  0  0  0  0
   16.4622   13.6526    3.4584 H   0  0  0  0  0  0  0  0  0  0  0  0
   14.6665   15.5270    6.5203 H   0  0  0  0  0  0  0  0  0  0  0  0
   16.5256   15.4702    6.1077 H   0  0  0  0  0  0  0  0  0  0  0  0
   14.1255   14.8793    4.2737 H   0  0  0  0  0  0  0  0  0  0  0  0
  2  1  1  0
  3  2  1  0
  4  3  1  0
  5  4  1  0
  6  1  1  0
  6  5  1  0
  8  7  1  0
  8  1  1  0
  9  8  2  0
 10  7  1  0
 12 10  1  0
 12 11  2  3
 13  6  1  0
 14 13  2  0
 15 13  1  0
  1 16  1  6
  2 17  1  0
  2 18  1  0
  3 19  1  0
  3 20  1  0
  4 21  1  0
  4 22  1  0
  5 23  1  0
  5 24  1  0
  6 25  1  1
  7 26  1  0
 10 27  1  0
 10 28  1  0
 11 29  1  0
 11 30  1  0
 12 31  1  0
M  CHG  1  15  -1
M  END
$$$$
=
     RDKit          3D

 40 40  0  0  0  0  0  0  0  0999 V2000
   15.6580   15.3960    5.7370 C   0  0  0  0  0  0  0  0  0  0  0  0
   15.2330   15.6030    4.2710 C   0  0  1  0  0  0  0  0  0  0  0  0
   15.9150   14.6270    3.2980 C   0  0  0  0  0  0  0  0  0  0  0  0
   15.4120   13.1940    3.4440 C   0  0  0  0  0  0  0  0  0  0  0  0
   13.8920   13.1130    3.3150 C   0  0  0  0  0  0  0  0  0  0  0  0
   13.1790   14.0680    4.2780 C   0  0  1  0  0  0  0  0  0  0  0  0
   13.7040   15.5010    4.1220 C   0  0  0  0  0  0  0  0  0  0  0  0
   11.6610   13.9210    4.0410 C   0  0  0  0  0  0  0  0  0  0  0  0
   10.9470   14.7390    4.6890 O   0  0  0  0  0  0  0  0  0  0  0  0
   11.3050   13.0250    3.2270 O   0  0  0  0  0  1  0  0  0  0  0  0
   17.4090   17.6760    5.9770 O   0  0  0  0  0  0  0  0  0  0  0  0
   17.8440   16.5360    5.9600 C   0  0  0  0  0  0  0  0  0  0  0  0
   17.0960   15.4020    5.9090 N   0  0  0  0  0  0  0  0  0  0  0  0
   19.1510   16.1850    5.9820 O   0  0  0  0  0  0  0  0  0  0  0  0
   20.0400   16.5820    4.9080 C   0  0  0  0  0  0  0  0  0  0  0  0
   21.2420   15.6330    5.0270 C   0  0  0  0  0  0  0  0  0  0  0  0
   20.5340   18.0200    5.0930 C   0  0  0  0  0  0  0  0  0  0  0  0
   19.3880   16.3720    3.5370 C   0  0  0  0  0  0  0  0  0  0  0  0
   15.2276   16.2049    6.3456 H   0  0  0  0  0  0  0  0  0  0  0  0
   15.2900   14.4087    6.0530 H   0  0  0  0  0  0  0  0  0  0  0  0
   15.5650   16.6165    4.0014 H   0  0  0  0  0  0  0  0  0  0  0  0
   15.7206   14.9640    2.2691 H   0  0  0  0  0  0  0  0  0  0  0  0
   16.9898   14.6249    3.5321 H   0  0  0  0  0  0  0  0  0  0  0  0
   15.8699   12.5737    2.6594 H   0  0  0  0  0  0  0  0  0  0  0  0
   15.6910   12.8329    4.4449 H   0  0  0  0  0  0  0  0  0  0  0  0
   13.6094   13.3727    2.2841 H   0  0  0  0  0  0  0  0  0  0  0  0
   13.5853   12.0871    3.5671 H   0  0  0  0  0  0  0  0  0  0  0  0
   13.3879   13.8120    5.3272 H   0  0  0  0  0  0  0  0  0  0  0  0
   13.4240   15.8699    3.1242 H   0  0  0  0  0  0  0  0  0  0  0  0
   13.2550   16.1043    4.9248 H   0  0  0  0  0  0  0  0  0  0  0  0
   17.5789   14.4965    5.9976 H   0  0  0  0  0  0  0  0  0  0  0  0
   21.4659   15.4563    6.0894 H   0  0  0  0  0  0  0  0  0  0  0  0
   21.0039   14.6767    4.5384 H   0  0  0  0  0  0  0  0  0  0  0  0
   22.1170   16.0865    4.5384 H   0  0  0  0  0  0  0  0  0  0  0  0
   20.6116   18.2458    6.1668 H   0  0  0  0  0  0  0  0  0  0  0  0
   21.5220   18.1317    4.6225 H   0  0  0  0  0  0  0  0  0  0  0  0
   19.8232   18.7153    4.6225 H   0  0  0  0  0  0  0  0  0  0  0  0
   18.3489   16.0373    3.6725 H   0  0  0  0  0  0  0  0  0  0  0  0
   19.3982   17.3189    2.9772 H   0  0  0  0  0  0  0  0  0  0  0  0
   19.9489   15.6091    2.9772 H   0  0  0  0  0  0  0  0  0  0  0  0
  2  1  1  0
  3  2  1  0
  4  3  1  0
  5  4  1  0
  6  5  1  0
  7  6  1  0
  7  2  1  0
  8  6  1  0
  9  8  2  0
 10  8  1  0
 12 11  2  0
 13  1  1  0
 13 12  1  0
 14 12  1  0
 15 14  1  0
 16 15  1  0
 17 15  1  0
 18 15  1  0
  1 19  1  0
  1 20  1  0
  2 21  1  6
  3 22  1  0
  3 23  1  0
  4 24  1  0
  4 25  1  0
  5 26  1  0
  5 27  1  0
  6 28  1  1
  7 29  1  0
  7 30  1  0
 13 31  1  0
 16 32  1  0
 16 33  1  0
 16 34  1  0
 17 35  1  0
 17 36  1  0
 17 37  1  0
 18 38  1  0
 18 39  1  0
 18 40  1  0
M  CHG  1  10  -1
M  END
$$$$
=
     RDKit          3D

 40 41  0  0  0  0  0  0  0  0999 V2000
   17.2210   14.4150    4.2000 N   0  0  0  0  0  0  0  0  0  0  0  0
   18.5980   14.5220    4.1360 C   0  0  0  0  0  0  0  0  0  0  0  0
   19.2360   14.1950    3.1420 O   0  0  0  0  0  0  0  0  0  0  0  0
   19.2030   15.1250    5.4100 C   0  0  2  0  0  0  0  0  0  0  0  0
   18.1240   15.8840    6.2050 C   0  0  0  0  0  0  0  0  0  0  0  0
   17.7910   17.2430    5.5970 C   0  0  0  0  0  0  0  0  0  0  0  0
   19.0410   18.0950    5.4180 C   0  0  0  0  0  0  0  0  0  0  0  0
   20.0900   17.3750    4.5770 C   0  0  0  0  0  0  0  0  0  0  0  0
   20.4490   15.9900    5.1370 C   0  0  1  0  0  0  0  0  0  0  0  0
   21.3600   16.1170    6.3830 C   0  0  0  0  0  0  0  0  0  0  0  0
   22.2600   17.0020    6.3120 O   0  0  0  0  0  0  0  0  0  0  0  0
   21.1270   15.3130    7.3300 O   0  0  0  0  0  1  0  0  0  0  0  0
   16.4570   13.7860    3.1550 C   0  0  0  0  0  0  0  0  0  0  0  0
   12.8360   13.6500    3.6110 N   0  0  0  0  0  0  0  0  0  0  0  0
   13.0750   14.7270    4.3810 N   0  0  0  0  0  0  0  0  0  0  0  0
   14.3940   14.9100    4.2590 C   0  0  0  0  0  0  0  0  0  0  0  0
   15.0130   13.9120    3.4730 C   0  0  0  0  0  0  0  0  0  0  0  0
   13.9660   13.1030    3.0750 C   0  0  0  0  0  0  0  0  0  0  0  0
   11.3680   12.1510    2.3210 C   0  0  0  0  0  0  0  0  0  0  0  0
   11.4770   13.1800    3.4330 C   0  0  0  0  0  0  0  0  0  0  0  0
   16.7275   14.7966    5.0196 H   0  0  0  0  0  0  0  0  0  0  0  0
   19.5644   14.2914    6.0300 H   0  0  0  0  0  0  0  0  0  0  0  0
   17.2087   15.2743    6.2264 H   0  0  0  0  0  0  0  0  0  0  0  0
   18.5192   16.0605    7.2163 H   0  0  0  0  0  0  0  0  0  0  0  0
   17.3192   17.0896    4.6152 H   0  0  0  0  0  0  0  0  0  0  0  0
   17.1090   17.7696    6.2807 H   0  0  0  0  0  0  0  0  0  0  0  0
   18.7648   19.0349    4.9177 H   0  0  0  0  0  0  0  0  0  0  0  0
   19.4701   18.2928    6.4114 H   0  0  0  0  0  0  0  0  0  0  0  0
   19.6989   17.2515    3.5563 H   0  0  0  0  0  0  0  0  0  0  0  0
   21.0043   17.9865    4.5905 H   0  0  0  0  0  0  0  0  0  0  0  0
   21.0198   15.4591    4.3609 H   0  0  0  0  0  0  0  0  0  0  0  0
   16.6681   14.2797    2.1949 H   0  0  0  0  0  0  0  0  0  0  0  0
   16.7310   12.7232    3.0810 H   0  0  0  0  0  0  0  0  0  0  0  0
   14.9384   15.7470    4.7206 H   0  0  0  0  0  0  0  0  0  0  0  0
   14.0302   12.1992    2.4512 H   0  0  0  0  0  0  0  0  0  0  0  0
   11.2617   11.1476    2.7591 H   0  0  0  0  0  0  0  0  0  0  0  0
   10.4885   12.3747    1.6993 H   0  0  0  0  0  0  0  0  0  0  0  0
   12.2748   12.1855    1.6993 H   0  0  0  0  0  0  0  0  0  0  0  0
   10.8346   14.0381    3.1861 H   0  0  0  0  0  0  0  0  0  0  0  0
   11.1597   12.6998    4.3704 H   0  0  0  0  0  0  0  0  0  0  0  0
  2  1  1  0
  3  2  2  0
  4  2  1  0
  5  4  1  0
  6  5  1  0
  7  6  1  0
  8  7  1  0
  9  4  1  0
  9  8  1  0
 10  9  1  0
 11 10  2  0
 12 10  1  0
 13  1  1  0
 15 14  1  0
 16 15  2  0
 17 16  1  0
 17 13  1  0
 18 17  2  0
 18 14  1  0
 20 19  1  0
 20 14  1  0
  1 21  1  0
  4 22  1  1
  5 23  1  0
  5 24  1  0
  6 25  1  0
  6 26  1  0
  7 27  1  0
  7 28  1  0
  8 29  1  0
  8 30  1  0
  9 31  1  6
 13 32  1  0
 13 33  1  0
 16 34  1  0
 18 35  1  0
 19 36  1  0
 19 37  1  0
 19 38  1  0
 20 39  1  0
 20 40  1  0
M  CHG  1  12  -1
M  END
$$$$
=
     RDKit          3D

 52 55  0  0  0  0  0  0  0  0999 V2000
   25.0260   25.4030   12.8410 C   0  0  0  0  0  0  0  0  0  0  0  0
   24.2720   24.4570   12.1180 C   0  0  0  0  0  0  0  0  0  0  0  0
   24.9380   23.3710   11.5410 C   0  0  0  0  0  0  0  0  0  0  0  0
   26.3210   23.2400   11.6760 C   0  0  0  0  0  0  0  0  0  0  0  0
   27.0590   24.1900   12.3860 C   0  0  0  0  0  0  0  0  0  0  0  0
   26.4150   25.2760   12.9660 C   0  0  0  0  0  0  0  0  0  0  0  0
   27.0910   26.2460   13.6660 O   0  0  0  0  0  0  0  0  0  0  0  0
   28.4670   26.1490   13.7950 C   0  0  0  0  0  0  0  0  0  0  0  0
   29.1980   25.1540   13.2700 C   0  0  0  0  0  0  0  0  0  0  0  0
   28.5150   24.0860   12.5280 C   0  0  0  0  0  0  0  0  0  0  0  0
   29.1380   23.1470   12.0420 O   0  0  0  0  0  0  0  0  0  0  0  0
   29.0820   27.2650   14.5440 C   0  0  0  0  0  0  0  0  0  0  0  0
   28.6190   28.5760   14.3490 C   0  0  0  0  0  0  0  0  0  0  0  0
   29.1770   29.6470   15.0530 C   0  0  0  0  0  0  0  0  0  0  0  0
   30.2010   29.4220   15.9680 C   0  0  0  0  0  0  0  0  0  0  0  0
   30.6640   28.1270   16.1850 C   0  0  0  0  0  0  0  0  0  0  0  0
   30.1080   27.0550   15.4810 C   0  0  0  0  0  0  0  0  0  0  0  0
   23.9090   26.3370   14.6500 C   0  0  0  0  0  0  0  0  0  0  0  0
   24.4470   26.5430   13.3430 O   0  0  0  0  0  0  0  0  0  0  0  0
   26.8980   22.1500   11.0780 O   0  0  0  0  0  0  0  0  0  0  0  0
   22.9210   24.6750   12.0510 O   0  0  0  0  0  0  0  0  0  0  0  0
   22.1870   24.2020   10.9330 C   0  0  2  0  0  0  0  0  0  0  0  0
   21.3810   25.2250   10.3140 O   0  0  0  0  0  0  0  0  0  0  0  0
   20.2710   25.7070   11.1240 C   0  0  1  0  0  0  0  0  0  0  0  0
   19.3320   24.5800   11.5780 C   0  0  2  0  0  0  0  0  0  0  0  0
   20.0970   23.3610   12.1380 C   0  0  1  0  0  0  0  0  0  0  0  0
   21.2720   22.9910   11.2220 C   0  0  1  0  0  0  0  0  0  0  0  0
   20.7380   26.5860   12.3170 C   0  0  0  0  0  0  0  0  0  0  0  0
   20.2200   26.2930   13.4390 O   0  0  0  0  0  0  0  0  0  0  0  0
   21.5480   27.5140   12.0390 O   0  0  0  0  0  1  0  0  0  0  0  0
   20.7450   22.4960    9.9620 O   0  0  0  0  0  0  0  0  0  0  0  0
   20.5300   23.5090   13.4890 O   0  0  0  0  0  0  0  0  0  0  0  0
   18.5210   24.1690   10.4490 O   0  0  0  0  0  0  0  0  0  0  0  0
   24.3691   22.6164   10.9780 H   0  0  0  0  0  0  0  0  0  0  0  0
   30.2910   25.1382   13.3932 H   0  0  0  0  0  0  0  0  0  0  0  0
   27.8058   28.7630   13.6322 H   0  0  0  0  0  0  0  0  0  0  0  0
   28.8063   30.6687   14.8835 H   0  0  0  0  0  0  0  0  0  0  0  0
   30.6436   30.2652   16.5185 H   0  0  0  0  0  0  0  0  0  0  0  0
   31.4694   27.9470   16.9123 H   0  0  0  0  0  0  0  0  0  0  0  0
   30.4779   26.0351   15.6626 H   0  0  0  0  0  0  0  0  0  0  0  0
   24.6571   26.6235   15.4038 H   0  0  0  0  0  0  0  0  0  0  0  0
   23.0066   26.9532   14.7764 H   0  0  0  0  0  0  0  0  0  0  0  0
   23.6489   25.2757   14.7764 H   0  0  0  0  0  0  0  0  0  0  0  0
   27.8758   22.0094   11.1431 H   0  0  0  0  0  0  0  0  0  0  0  0
   22.9831   23.8765   10.2472 H   0  0  0  0  0  0  0  0  0  0  0  0
   19.6819   26.3586   10.4619 H   0  0  0  0  0  0  0  0  0  0  0  0
   18.7047   24.9685   12.3938 H   0  0  0  0  0  0  0  0  0  0  0  0
   19.3706   22.5351   12.1534 H   0  0  0  0  0  0  0  0  0  0  0  0
   21.8723   22.2249   11.7346 H   0  0  0  0  0  0  0  0  0  0  0  0
   20.0352   21.8293   10.1403 H   0  0  0  0  0  0  0  0  0  0  0  0
   19.7936   23.2573   14.1010 H   0  0  0  0  0  0  0  0  0  0  0  0
   17.6879   23.7468   10.7774 H   0  0  0  0  0  0  0  0  0  0  0  0
  2  1  2  0
  3  2  1  0
  4  3  2  0
  5  4  1  0
  6  5  2  0
  6  1  1  0
  7  6  1  0
  8  7  1  0
  9  8  2  0
 10  5  1  0
 10  9  1  0
 11 10  2  0
 12  8  1  0
 13 12  2  0
 14 13  1  0
 15 14  2  0
 16 15  1  0
 17 16  2  0
 17 12  1  0
 19 18  1  0
 19  1  1  0
 20  4  1  0
 21  2  1  0
 22 21  1  0
 23 22  1  0
 24 23  1  0
 25 24  1  0
 26 25  1  0
 27 26  1  0
 27 22  1  0
 28 24  1  0
 29 28  2  0
 30 28  1  0
 31 27  1  0
 32 26  1  0
 33 25  1  0
  3 34  1  0
  9 35  1  0
 13 36  1  0
 14 37  1  0
 15 38  1  0
 16 39  1  0
 17 40  1  0
 18 41  1  0
 18 42  1  0
 18 43  1  0
 20 44  1  0
 22 45  1  6
 24 46  1  6
 25 47  1  1
 26 48  1  1
 27 49  1  1
 31 50  1  0
 32 51  1  0
 33 52  1  0
M  CHG  1  30  -1
M  END
$$$$
=
     RDKit          3D

 49 50  0  0  0  0  0  0  0  0999 V2000
   27.3930   24.7280   12.8900 C   0  0  1  0  0  0  0  0  0  0  0  0
   26.6810   23.3740   13.0120 C   0  0  0  0  0  0  0  0  0  0  0  0
   25.5770   23.6440   14.0240 C   0  0  0  0  0  0  0  0  0  0  0  0
   25.2220   25.0330   13.8160 N   0  0  0  0  0  0  0  0  0  0  0  0
   26.1860   25.6930   12.9420 C   0  0  0  0  0  0  0  0  0  0  0  0
   24.1540   25.6780   14.3750 C   0  0  0  0  0  0  0  0  0  0  0  0
   23.8840   26.8560   14.1810 O   0  0  0  0  0  0  0  0  0  0  0  0
   29.7580   23.2250   13.7810 O   0  0  0  0  0  0  0  0  0  0  0  0
   29.4930   24.3510   14.1740 C   0  0  0  0  0  0  0  0  0  0  0  0
   28.3110   25.0120   14.0320 N   0  0  0  0  0  0  0  0  0  0  0  0
   30.3560   25.1520   14.8460 O   0  0  0  0  0  0  0  0  0  0  0  0
   29.9620   25.4020   16.1950 C   0  0  0  0  0  0  0  0  0  0  0  0
   29.7640   26.8880   16.3780 C   0  0  0  0  0  0  0  0  0  0  0  0
   30.6100   27.8110   15.7460 C   0  0  0  0  0  0  0  0  0  0  0  0
   30.4050   29.1830   15.9040 C   0  0  0  0  0  0  0  0  0  0  0  0
   29.3510   29.6460   16.6900 C   0  0  0  0  0  0  0  0  0  0  0  0
   28.5010   28.7380   17.3200 C   0  0  0  0  0  0  0  0  0  0  0  0
   28.7040   27.3670   17.1620 C   0  0  0  0  0  0  0  0  0  0  0  0
   28.0210   25.1160   11.5170 C   0  0  0  0  0  0  0  0  0  0  0  0
   28.4720   26.2900   11.4060 O   0  0  0  0  0  0  0  0  0  0  0  0
   28.0160   24.1730   10.6650 O   0  0  0  0  0  1  0  0  0  0  0  0
   23.4330   24.8450   15.1720 O   0  0  0  0  0  0  0  0  0  0  0  0
   22.0810   24.4630   14.8210 C   0  0  0  0  0  0  0  0  0  0  0  0
   21.8740   23.1020   15.5070 C   0  0  0  0  0  0  0  0  0  0  0  0
   21.0550   25.4530   15.3820 C   0  0  0  0  0  0  0  0  0  0  0  0
   21.9290   24.2720   13.3070 C   0  0  0  0  0  0  0  0  0  0  0  0
   26.2602   23.0623   12.0446 H   0  0  0  0  0  0  0  0  0  0  0  0
   27.3553   22.5612   13.3197 H   0  0  0  0  0  0  0  0  0  0  0  0
   24.7120   22.9902   13.8387 H   0  0  0  0  0  0  0  0  0  0  0  0
   25.9004   23.4463   15.0566 H   0  0  0  0  0  0  0  0  0  0  0  0
   25.7624   25.8390   11.9374 H   0  0  0  0  0  0  0  0  0  0  0  0
   26.4664   26.6910   13.3099 H   0  0  0  0  0  0  0  0  0  0  0  0
   28.0447   25.7233   14.7277 H   0  0  0  0  0  0  0  0  0  0  0  0
   29.0206   24.8747   16.4087 H   0  0  0  0  0  0  0  0  0  0  0  0
   30.7400   25.0415   16.8840 H   0  0  0  0  0  0  0  0  0  0  0  0
   31.4410   27.4514   15.1214 H   0  0  0  0  0  0  0  0  0  0  0  0
   31.0761   29.8994   15.4076 H   0  0  0  0  0  0  0  0  0  0  0  0
   29.1900   30.7272   16.8131 H   0  0  0  0  0  0  0  0  0  0  0  0
   27.6701   29.1028   17.9418 H   0  0  0  0  0  0  0  0  0  0  0  0
   28.0268   26.6551   17.6566 H   0  0  0  0  0  0  0  0  0  0  0  0
   21.8942   23.2348   16.5988 H   0  0  0  0  0  0  0  0  0  0  0  0
   20.9019   22.6840   15.2064 H   0  0  0  0  0  0  0  0  0  0  0  0
   22.6778   22.4139   15.2064 H   0  0  0  0  0  0  0  0  0  0  0  0
   21.0827   25.4262   16.4813 H   0  0  0  0  0  0  0  0  0  0  0  0
   21.2965   26.4681   15.0337 H   0  0  0  0  0  0  0  0  0  0  0  0
   20.0492   25.1754   15.0337 H   0  0  0  0  0  0  0  0  0  0  0  0
   21.2551   23.4252   13.1101 H   0  0  0  0  0  0  0  0  0  0  0  0
   21.5087   25.1862   12.8625 H   0  0  0  0  0  0  0  0  0  0  0  0
   22.9142   24.0676   12.8625 H   0  0  0  0  0  0  0  0  0  0  0  0
  2  1  1  0
  3  2  1  0
  4  3  1  0
  5  4  1  0
  5  1  1  0
  6  4  1  0
  7  6  2  0
  9  8  2  0
 10  9  1  0
 10  1  1  0
 11  9  1  0
 12 11  1  0
 13 12  1  0
 14 13  2  0
 15 14  1  0
 16 15  2  0
 17 16  1  0
 18 13  1  0
 18 17  2  0
  1 19  1  6
 20 19  2  0
 21 19  1  0
 22  6  1  0
 23 22  1  0
 24 23  1  0
 25 23  1  0
 26 23  1  0
  2 27  1  0
  2 28  1  0
  3 29  1  0
  3 30  1  0
  5 31  1  0
  5 32  1  0
 10 33  1  0
 12 34  1  0
 12 35  1  0
 14 36  1  0
 15 37  1  0
 16 38  1  0
 17 39  1  0
 18 40  1  0
 24 41  1  0
 24 42  1  0
 24 43  1  0
 25 44  1  0
 25 45  1  0
 25 46  1  0
 26 47  1  0
 26 48  1  0
 26 49  1  0
M  CHG  1  21  -1
M  END
$$$$
=
     RDKit          3D

 18 18  0  0  0  0  0  0  0  0999 V2000
   18.1010   15.3440    4.3010 C   0  0  0  0  0  0  0  0  0  0  0  0
   18.9350   14.8870    3.3590 N   0  0  0  0  0  0  0  0  0  0  0  0
   20.1930   15.0490    3.9510 O   0  0  0  0  0  0  0  0  0  0  0  0
   19.9880   15.5910    5.1990 C   0  0  0  0  0  0  0  0  0  0  0  0
   18.6990   15.7850    5.4460 N   0  0  0  0  0  0  0  0  0  0  0  0
   15.8990   15.6100    5.4570 C   0  0  0  0  0  0  0  0  0  0  0  0
   16.6200   15.3760    4.1290 C   0  0  0  0  0  0  0  0  0  0  0  0
   16.0990   14.1080    3.4500 C   0  0  0  0  0  0  0  0  0  0  0  0
   21.2100   15.9210    6.1860 C   0  0  0  0  0  0  0  0  0  0  0  0
   22.1590   16.6380    5.7340 O   0  0  0  0  0  0  0  0  0  0  0  0
   21.1360   15.4340    7.3610 O   0  0  0  0  0  1  0  0  0  0  0  0
   16.5828   15.3881    6.2896 H   0  0  0  0  0  0  0  0  0  0  0  0
   15.5750   16.6594    5.5184 H   0  0  0  0  0  0  0  0  0  0  0  0
   15.0205   14.9509    5.5184 H   0  0  0  0  0  0  0  0  0  0  0  0
   16.3988   16.2280    3.4693 H   0  0  0  0  0  0  0  0  0  0  0  0
   15.7992   13.3783    4.2166 H   0  0  0  0  0  0  0  0  0  0  0  0
   15.2308   14.3583    2.8226 H   0  0  0  0  0  0  0  0  0  0  0  0
   16.8923   13.6756    2.8226 H   0  0  0  0  0  0  0  0  0  0  0  0
  2  1  2  0
  3  2  1  0
  4  3  1  0
  5  4  2  0
  5  1  1  0
  7  6  1  0
  7  1  1  0
  8  7  1  0
  9  4  1  0
 10  9  2  0
 11  9  1  0
  6 12  1  0
  6 13  1  0
  6 14  1  0
  7 15  1  0
  8 16  1  0
  8 17  1  0
  8 18  1  0
M  CHG  1  11  -1
M  END
$$$$
=
     RDKit          3D

 54 57  0  0  0  0  0  0  0  0999 V2000
   25.9040   26.5900   13.7870 C   0  0  2  0  0  0  0  0  0  0  0  0
   27.1020   25.8370   13.6070 O   0  0  0  0  0  0  0  0  0  0  0  0
   28.1720   26.2720   14.4480 C   0  0  2  0  0  0  0  0  0  0  0  0
   29.3440   25.5280   14.1100 O   0  0  0  0  0  0  0  0  0  0  0  0
   29.4380   24.3540   14.9120 C   0  0  1  0  0  0  0  0  0  0  0  0
   30.0370   23.2540   14.0370 C   0  0  0  0  0  0  0  0  0  0  0  0
   30.3620   24.6310   16.1160 C   0  0  0  0  0  0  0  0  0  0  0  0
   30.3190   26.0900   16.5930 C   0  0  0  0  0  0  0  0  0  0  0  0
   28.9130   26.5900   16.9750 C   0  0  2  0  0  0  0  0  0  0  0  0
   27.8110   26.1590   15.9630 C   0  0  1  0  0  0  0  0  0  0  0  0
   26.4860   26.9030   16.2430 C   0  0  2  0  0  0  0  0  0  0  0  0
   25.4010   26.4320   15.2370 C   0  0  1  0  0  0  0  0  0  0  0  0
   24.0490   27.1170   15.4630 C   0  0  0  0  0  0  0  0  0  0  0  0
   26.6410   28.4410   16.2740 C   0  0  0  0  0  0  0  0  0  0  0  0
   28.0720   28.9500   16.4130 C   0  0  0  0  0  0  0  0  0  0  0  0
   28.9490   28.1010   17.3270 C   0  0  1  0  0  0  0  0  0  0  0  0
   28.5580   28.3220   18.7960 C   0  0  0  0  0  0  0  0  0  0  0  0
   27.5810   24.7680   16.3300 O   0  0  0  0  0  0  0  0  0  0  0  0
   28.1480   23.8770   15.3150 O   0  0  0  0  0  0  0  0  0  0  0  0
   24.8930   26.0910   12.9070 O   0  0  0  0  0  0  0  0  0  0  0  0
   25.0100   24.7780   12.5710 C   0  0  0  0  0  0  0  0  0  0  0  0
   24.7840   23.8330   13.3180 O   0  0  0  0  0  0  0  0  0  0  0  0
   25.5120   24.6420   11.1600 C   0  0  0  0  0  0  0  0  0  0  0  0
   26.3110   23.3590   11.0080 C   0  0  0  0  0  0  0  0  0  0  0  0
   28.1670   24.7870   11.0290 O   0  0  0  0  0  1  0  0  0  0  0  0
   27.8150   23.5800   10.8990 C   0  0  0  0  0  0  0  0  0  0  0  0
   28.5210   22.5570   10.6910 O   0  0  0  0  0  0  0  0  0  0  0  0
   26.1127   27.6485   13.5726 H   0  0  0  0  0  0  0  0  0  0  0  0
   28.3624   27.3415   14.2752 H   0  0  0  0  0  0  0  0  0  0  0  0
   30.4648   22.4684   14.6772 H   0  0  0  0  0  0  0  0  0  0  0  0
   29.2500   22.8213   13.4019 H   0  0  0  0  0  0  0  0  0  0  0  0
   30.8275   23.6803   13.4019 H   0  0  0  0  0  0  0  0  0  0  0  0
   30.0536   23.9823   16.9491 H   0  0  0  0  0  0  0  0  0  0  0  0
   31.3922   24.4257   15.7895 H   0  0  0  0  0  0  0  0  0  0  0  0
   30.9695   26.1835   17.4751 H   0  0  0  0  0  0  0  0  0  0  0  0
   30.6546   26.7083   15.7474 H   0  0  0  0  0  0  0  0  0  0  0  0
   28.5995   26.0786   17.8970 H   0  0  0  0  0  0  0  0  0  0  0  0
   26.1604   26.6391   17.2600 H   0  0  0  0  0  0  0  0  0  0  0  0
   25.2222   25.3619   15.4183 H   0  0  0  0  0  0  0  0  0  0  0  0
   23.8619   27.2118   16.5428 H   0  0  0  0  0  0  0  0  0  0  0  0
   24.0632   28.1167   15.0042 H   0  0  0  0  0  0  0  0  0  0  0  0
   23.2514   26.5143   15.0042 H   0  0  0  0  0  0  0  0  0  0  0  0
   26.2269   28.8431   15.3376 H   0  0  0  0  0  0  0  0  0  0  0  0
   26.1085   28.7819   17.1741 H   0  0  0  0  0  0  0  0  0  0  0  0
   28.5308   28.9682   15.4134 H   0  0  0  0  0  0  0  0  0  0  0  0
   28.0104   29.9484   16.8705 H   0  0  0  0  0  0  0  0  0  0  0  0
   29.9857   28.4329   17.1689 H   0  0  0  0  0  0  0  0  0  0  0  0
   29.3281   27.8867   19.4499 H   0  0  0  0  0  0  0  0  0  0  0  0
   28.4749   29.4006   18.9950 H   0  0  0  0  0  0  0  0  0  0  0  0
   27.5910   27.8369   18.9950 H   0  0  0  0  0  0  0  0  0  0  0  0
   24.6554   24.6203   10.4702 H   0  0  0  0  0  0  0  0  0  0  0  0
   26.1613   25.4986   10.9263 H   0  0  0  0  0  0  0  0  0  0  0  0
   26.1165   22.7235   11.8845 H   0  0  0  0  0  0  0  0  0  0  0  0
   25.9873   22.8896   10.0673 H   0  0  0  0  0  0  0  0  0  0  0  0
  2  1  1  0
  3  2  1  0
  4  3  1  0
  5  4  1  0
  5  6  1  6
  7  5  1  0
  8  7  1  0
  9  8  1  0
 10  3  1  0
 10  9  1  0
 11 10  1  0
 12 11  1  0
 12  1  1  0
 13 12  1  0
 14 11  1  0
 15 14  1  0
 16  9  1  0
 16 15  1  0
 17 16  1  0
 10 18  1  1
 19 18  1  0
 19  5  1  0
 20  1  1  0
 21 20  1  0
 22 21  2  0
 23 21  1  0
 24 23  1  0
 26 24  1  0
 26 25  1  0
 27 26  2  0
  1 28  1  6
  3 29  1  6
  6 30  1  0
  6 31  1  0
  6 32  1  0
  7 33  1  0
  7 34  1  0
  8 35  1  0
  8 36  1  0
  9 37  1  1
 11 38  1  1
 12 39  1  1
 13 40  1  0
 13 41  1  0
 13 42  1  0
 14 43  1  0
 14 44  1  0
 15 45  1  0
 15 46  1  0
 16 47  1  1
 17 48  1  0
 17 49  1  0
 17 50  1  0
 23 51  1  0
 23 52  1  0
 24 53  1  0
 24 54  1  0
M  CHG  1  25  -1
M  END
$$$$
=
     RDKit          3D

 32 33  0  0  0  0  0  0  0  0999 V2000
   20.3820   17.5760    4.1590 C   0  0  1  0  0  0  0  0  0  0  0  0
   21.5410   18.5960    4.1490 C   0  0  0  0  0  0  0  0  0  0  0  0
   22.7620   18.1700    4.9700 C   0  0  0  0  0  0  0  0  0  0  0  0
   22.3840   17.3390    6.1850 C   0  0  0  0  0  0  0  0  0  0  0  0
   21.6170   16.0710    5.8050 C   0  0  0  0  0  0  0  0  0  0  0  0
   20.9070   16.1540    4.4410 C   0  0  1  0  0  0  0  0  0  0  0  0
   19.3700   18.9630    5.9020 O   0  0  0  0  0  0  0  0  0  0  0  0
   19.2700   18.0070    5.1350 C   0  0  0  0  0  0  0  0  0  0  0  0
   18.1380   17.2280    5.0670 N   0  0  0  0  0  0  0  0  0  0  0  0
   17.1400   17.2910    6.1010 C   0  0  0  0  0  0  0  0  0  0  0  0
   16.4130   15.9920    6.2130 C   0  0  1  0  0  0  0  0  0  0  0  0
   15.2620   15.6860    5.2920 C   0  0  0  0  0  0  0  0  0  0  0  0
   16.5560   15.0980    5.1000 O   0  0  0  0  0  0  0  0  0  0  0  0
   19.9000   14.9980    4.2890 C   0  0  0  0  0  0  0  0  0  0  0  0
   19.6910   14.3050    5.3200 O   0  0  0  0  0  0  0  0  0  0  0  0
   19.4000   14.8610    3.1320 O   0  0  0  0  0  1  0  0  0  0  0  0
   19.9253   17.5537    3.1585 H   0  0  0  0  0  0  0  0  0  0  0  0
   21.8609   18.7439    3.1070 H   0  0  0  0  0  0  0  0  0  0  0  0
   21.1552   19.5161    4.6121 H   0  0  0  0  0  0  0  0  0  0  0  0
   23.4283   17.5745    4.3286 H   0  0  0  0  0  0  0  0  0  0  0  0
   23.2582   19.0832    5.3304 H   0  0  0  0  0  0  0  0  0  0  0  0
   23.3030   17.0507    6.7163 H   0  0  0  0  0  0  0  0  0  0  0  0
   21.7279   17.9515    6.8209 H   0  0  0  0  0  0  0  0  0  0  0  0
   22.3283   15.2325    5.7743 H   0  0  0  0  0  0  0  0  0  0  0  0
   20.8330   15.9335    6.5642 H   0  0  0  0  0  0  0  0  0  0  0  0
   21.6271   15.9946    3.6249 H   0  0  0  0  0  0  0  0  0  0  0  0
   18.0037   16.5930    4.2672 H   0  0  0  0  0  0  0  0  0  0  0  0
   17.6283   17.5154    7.0608 H   0  0  0  0  0  0  0  0  0  0  0  0
   16.4169   18.0800    5.8468 H   0  0  0  0  0  0  0  0  0  0  0  0
   16.5457   15.9593    7.3045 H   0  0  0  0  0  0  0  0  0  0  0  0
   14.4199   15.0710    5.6423 H   0  0  0  0  0  0  0  0  0  0  0  0
   14.5667   16.2768    4.6776 H   0  0  0  0  0  0  0  0  0  0  0  0
  2  1  1  0
  3  2  1  0
  4  3  1  0
  5  4  1  0
  6  5  1  0
  6  1  1  0
  8  1  1  0
  8  7  2  0
  9  8  1  0
 10  9  1  0
 11 10  1  0
 12 11  1  0
 13 12  1  0
 13 11  1  0
 14  6  1  0
 15 14  2  0
 16 14  1  0
  1 17  1  6
  2 18  1  0
  2 19  1  0
  3 20  1  0
  3 21  1  0
  4 22  1  0
  4 23  1  0
  5 24  1  0
  5 25  1  0
  6 26  1  6
  9 27  1  0
 10 28  1  0
 10 29  1  0
 11 30  1  1
 12 31  1  0
 12 32  1  0
M  CHG  1  16  -1
M  END
$$$$
=
     RDKit          3D

 30 31  0  0  0  0  0  0  0  0999 V2000
   19.2420   15.0380    3.1500 O   0  0  0  0  0  0  0  0  0  0  0  0
   18.4730   15.8960    3.5860 C   0  0  0  0  0  0  0  0  0  0  0  0
   17.1340   15.7350    3.8380 N   0  0  0  0  0  0  0  0  0  0  0  0
   16.4700   14.5620    3.6240 C   0  0  0  0  0  0  0  0  0  0  0  0
   16.9210   13.4090    3.1910 N   0  0  0  0  0  0  0  0  0  0  0  0
   15.8830   12.5030    3.1350 C   0  0  0  0  0  0  0  0  0  0  0  0
   14.6490   12.9780    3.5280 C   0  0  0  0  0  0  0  0  0  0  0  0
   14.8000   14.6240    3.9870 S   0  0  0  0  0  0  0  0  0  0  0  0
   13.3400   12.2860    3.5910 C   0  0  0  0  0  0  0  0  0  0  0  0
   19.0260   17.2820    3.9210 C   0  0  2  0  0  0  0  0  0  0  0  0
   20.4270   17.5190    3.3520 C   0  0  0  0  0  0  0  0  0  0  0  0
   21.1240   18.3970    4.3850 C   0  0  0  0  0  0  0  0  0  0  0  0
   20.5770   17.9090    5.7210 C   0  0  1  0  0  0  0  0  0  0  0  0
   19.1100   17.5880    5.4260 C   0  0  0  0  0  0  0  0  0  0  0  0
   21.4210   16.7100    6.1810 C   0  0  0  0  0  0  0  0  0  0  0  0
   20.8010   15.6150    6.2620 O   0  0  0  0  0  0  0  0  0  0  0  0
   22.6340   16.9700    6.4350 O   0  0  0  0  0  1  0  0  0  0  0  0
   16.6044   16.5380    4.2064 H   0  0  0  0  0  0  0  0  0  0  0  0
   16.0298   11.4662    2.7980 H   0  0  0  0  0  0  0  0  0  0  0  0
   13.0551   12.1354    4.6427 H   0  0  0  0  0  0  0  0  0  0  0  0
   12.5769   12.8985    3.0885 H   0  0  0  0  0  0  0  0  0  0  0  0
   13.4164   11.3105    3.0885 H   0  0  0  0  0  0  0  0  0  0  0  0
   18.2895   17.9508    3.4517 H   0  0  0  0  0  0  0  0  0  0  0  0
   20.9619   16.5656    3.2297 H   0  0  0  0  0  0  0  0  0  0  0  0
   20.3972   17.9907    2.3587 H   0  0  0  0  0  0  0  0  0  0  0  0
   22.2149   18.2636    4.3380 H   0  0  0  0  0  0  0  0  0  0  0  0
   20.9391   19.4688    4.2204 H   0  0  0  0  0  0  0  0  0  0  0  0
   20.6313   18.6300    6.5500 H   0  0  0  0  0  0  0  0  0  0  0  0
   18.4744   18.4506    5.6748 H   0  0  0  0  0  0  0  0  0  0  0  0
   18.7601   16.7352    6.0262 H   0  0  0  0  0  0  0  0  0  0  0  0
  2  1  2  0
  3  2  1  0
  4  3  1  0
  5  4  2  0
  6  5  1  0
  7  6  2  0
  8  7  1  0
  8  4  1  0
  9  7  1  0
 10  2  1  0
 11 10  1  0
 12 11  1  0
 13 12  1  0
 14 10  1  0
 14 13  1  0
 15 13  1  0
 16 15  2  0
 17 15  1  0
  3 18  1  0
  6 19  1  0
  9 20  1  0
  9 21  1  0
  9 22  1  0
 10 23  1  6
 11 24  1  0
 11 25  1  0
 12 26  1  0
 12 27  1  0
 13 28  1  1
 14 29  1  0
 14 30  1  0
M  CHG  1  17  -1
M  END
$$$$
=
     RDKit          3D

 31 31  0  0  0  0  0  0  0  0999 V2000
   17.4000   15.3570    4.2610 C   0  0  0  0  0  0  0  0  0  0  0  0
   16.9400   14.2600    3.5310 C   0  0  0  0  0  0  0  0  0  0  0  0
   15.5630   13.9470    3.4920 C   0  0  0  0  0  0  0  0  0  0  0  0
   14.6600   14.7610    4.2020 C   0  0  0  0  0  0  0  0  0  0  0  0
   15.1080   15.8570    4.9320 C   0  0  0  0  0  0  0  0  0  0  0  0
   16.4680   16.1420    4.9540 C   0  0  0  0  0  0  0  0  0  0  0  0
   16.8940   17.2030    5.6620 F   0  0  0  0  0  0  0  0  0  0  0  0
   19.0990   17.1730    2.5590 O   0  0  0  0  0  0  0  0  0  0  0  0
   19.4670   16.5780    3.5570 C   0  0  0  0  0  0  0  0  0  0  0  0
   18.7480   15.7480    4.3620 N   0  0  0  0  0  0  0  0  0  0  0  0
   20.7280   16.6450    4.0650 O   0  0  0  0  0  0  0  0  0  0  0  0
   21.1210   17.7400    4.9320 C   0  0  0  0  0  0  0  0  0  0  0  0
   19.9010   18.4880    5.4790 C   0  0  0  0  0  0  0  0  0  0  0  0
   22.1080   18.6810    4.2310 C   0  0  0  0  0  0  0  0  0  0  0  0
   21.8450   17.0620    6.1060 C   0  0  0  0  0  0  0  0  0  0  0  0
   15.0510   12.7560    2.7010 C   0  0  0  0  0  0  0  0  0  0  0  0
   13.7970   12.5580    2.6890 O   0  0  0  0  0  0  0  0  0  0  0  0
   15.9230   12.0450    2.1080 O   0  0  0  0  0  1  0  0  0  0  0  0
   17.6568   13.6329    2.9806 H   0  0  0  0  0  0  0  0  0  0  0  0
   13.5854   14.5271    4.1791 H   0  0  0  0  0  0  0  0  0  0  0  0
   14.3963   16.4888    5.4837 H   0  0  0  0  0  0  0  0  0  0  0  0
   19.2647   15.3493    5.1589 H   0  0  0  0  0  0  0  0  0  0  0  0
   19.9247   18.4735    6.5786 H   0  0  0  0  0  0  0  0  0  0  0  0
   19.9206   19.5295    5.1255 H   0  0  0  0  0  0  0  0  0  0  0  0
   18.9817   17.9981    5.1255 H   0  0  0  0  0  0  0  0  0  0  0  0
   22.6872   19.2332    4.9857 H   0  0  0  0  0  0  0  0  0  0  0  0
   22.7922   18.0924    3.6022 H   0  0  0  0  0  0  0  0  0  0  0  0
   21.5527   19.3925    3.6022 H   0  0  0  0  0  0  0  0  0  0  0  0
   21.4395   17.4417    7.0554 H   0  0  0  0  0  0  0  0  0  0  0  0
   21.6929   15.9739    6.0514 H   0  0  0  0  0  0  0  0  0  0  0  0
   22.9208   17.2851    6.0514 H   0  0  0  0  0  0  0  0  0  0  0  0
  2  1  2  0
  3  2  1  0
  4  3  2  0
  5  4  1  0
  6  5  2  0
  6  1  1  0
  7  6  1  0
  9  8  2  0
 10  1  1  0
 10  9  1  0
 11  9  1  0
 12 11  1  0
 13 12  1  0
 14 12  1  0
 15 12  1  0
 16  3  1  0
 17 16  2  0
 18 16  1  0
  2 19  1  0
  4 20  1  0
  5 21  1  0
 10 22  1  0
 13 23  1  0
 13 24  1  0
 13 25  1  0
 14 26  1  0
 14 27  1  0
 14 28  1  0
 15 29  1  0
 15 30  1  0
 15 31  1  0
M  CHG  1  18  -1
M  END
$$$$
=
     RDKit          3D

 53 55  0  0  0  0  0  0  0  0999 V2000
    8.8340   12.5390    2.0730 C   0  0  2  0  0  0  0  0  0  0  0  0
    9.7330   11.6660    1.2070 C   0  0  0  0  0  0  0  0  0  0  0  0
   10.9740   11.4900    2.0640 C   0  0  0  0  0  0  0  0  0  0  0  0
   11.1470   12.8120    2.7090 N   0  0  1  0  0  4  0  0  0  0  0  0
    9.8300   13.5630    2.6560 C   0  0  0  0  0  0  0  0  0  0  0  0
    6.3090   13.0820    3.1700 O   0  0  0  0  0  0  0  0  0  0  0  0
    6.8830   12.0520    3.4770 C   0  0  0  0  0  0  0  0  0  0  0  0
    8.1540   11.7390    3.0850 N   0  0  0  0  0  0  0  0  0  0  0  0
    6.3970   11.0390    4.2230 O   0  0  0  0  0  0  0  0  0  0  0  0
    6.2600   11.1820    5.6620 C   0  0  0  0  0  0  0  0  0  0  0  0
    5.0010   11.9780    6.0240 C   0  0  0  0  0  0  0  0  0  0  0  0
    7.5220   11.7910    6.2830 C   0  0  0  0  0  0  0  0  0  0  0  0
    6.1000    9.7450    6.1830 C   0  0  0  0  0  0  0  0  0  0  0  0
   11.8440   12.8890    4.0940 C   0  0  1  0  0  0  0  0  0  0  0  0
   13.2960   13.3280    3.9780 C   0  0  0  0  0  0  0  0  0  0  0  0
   14.1420   12.7000    3.0540 C   0  0  0  0  0  0  0  0  0  0  0  0
   15.4620   13.1310    2.8920 C   0  0  0  0  0  0  0  0  0  0  0  0
   15.9690   14.1970    3.6490 C   0  0  0  0  0  0  0  0  0  0  0  0
   15.1310   14.8310    4.5930 C   0  0  0  0  0  0  0  0  0  0  0  0
   13.8060   14.3890    4.7460 C   0  0  0  0  0  0  0  0  0  0  0  0
   15.6420   15.8900    5.3610 C   0  0  0  0  0  0  0  0  0  0  0  0
   16.9590   16.3210    5.1960 C   0  0  0  0  0  0  0  0  0  0  0  0
   17.7830   15.6980    4.2630 C   0  0  0  0  0  0  0  0  0  0  0  0
   17.2920   14.6410    3.4960 C   0  0  0  0  0  0  0  0  0  0  0  0
   11.0570   13.9000    5.0130 C   0  0  0  0  0  0  0  0  0  0  0  0
   10.7070   13.3310    6.1030 O   0  0  0  0  0  0  0  0  0  0  0  0
   10.9580   15.0840    4.6180 O   0  0  0  0  0  1  0  0  0  0  0  0
    8.0100   13.0295    1.5340 H   0  0  0  0  0  0  0  0  0  0  0  0
    9.2578   10.6965    0.9970 H   0  0  0  0  0  0  0  0  0  0  0  0
    9.9470   12.1090    0.2232 H   0  0  0  0  0  0  0  0  0  0  0  0
   10.8218   10.7031    2.8174 H   0  0  0  0  0  0  0  0  0  0  0  0
   11.8543   11.1824    1.4805 H   0  0  0  0  0  0  0  0  0  0  0  0
   11.8681   13.2801    2.1416 H   0  0  0  0  0  0  0  0  0  0  0  0
    9.9097   14.4449    2.0034 H   0  0  0  0  0  0  0  0  0  0  0  0
    9.5192   13.9390    3.6419 H   0  0  0  0  0  0  0  0  0  0  0  0
    8.6352   10.9322    3.5073 H   0  0  0  0  0  0  0  0  0  0  0  0
    4.9069   12.0375    7.1183 H   0  0  0  0  0  0  0  0  0  0  0  0
    5.0763   12.9930    5.6067 H   0  0  0  0  0  0  0  0  0  0  0  0
    4.1164   11.4747    5.6067 H   0  0  0  0  0  0  0  0  0  0  0  0
    7.4455   11.7541    7.3797 H   0  0  0  0  0  0  0  0  0  0  0  0
    8.4035   11.2191    5.9575 H   0  0  0  0  0  0  0  0  0  0  0  0
    7.6228   12.8369    5.9575 H   0  0  0  0  0  0  0  0  0  0  0  0
    6.1007    9.7516    7.2830 H   0  0  0  0  0  0  0  0  0  0  0  0
    5.1497    9.3268    5.8195 H   0  0  0  0  0  0  0  0  0  0  0  0
    6.9350    9.1281    5.8195 H   0  0  0  0  0  0  0  0  0  0  0  0
   11.8368   11.8815    4.5354 H   0  0  0  0  0  0  0  0  0  0  0  0
   13.7643   11.8610    2.4512 H   0  0  0  0  0  0  0  0  0  0  0  0
   16.1115   12.6272    2.1610 H   0  0  0  0  0  0  0  0  0  0  0  0
   13.1546   14.8834    5.4817 H   0  0  0  0  0  0  0  0  0  0  0  0
   14.9966   16.3855    6.1012 H   0  0  0  0  0  0  0  0  0  0  0  0
   17.3458   17.1528    5.8030 H   0  0  0  0  0  0  0  0  0  0  0  0
   18.8205   16.0388    4.1305 H   0  0  0  0  0  0  0  0  0  0  0  0
   17.9490   14.1499    2.7631 H   0  0  0  0  0  0  0  0  0  0  0  0
  2  1  1  0
  3  2  1  0
  4  3  1  0
  5  1  1  0
  5  4  1  0
  7  6  2  0
  8  7  1  0
  8  1  1  0
  9  7  1  0
 10  9  1  0
 11 10  1  0
 12 10  1  0
 13 10  1  0
 14  4  1  0
 15 14  1  0
 16 15  2  0
 17 16  1  0
 18 17  2  0
 19 18  1  0
 20 19  2  0
 20 15  1  0
 21 19  1  0
 22 21  2  0
 23 22  1  0
 24 18  1  0
 24 23  2  0
 25 14  1  0
 26 25  2  0
 27 25  1  0
  1 28  1  6
  2 29  1  0
  2 30  1  0
  3 31  1  0
  3 32  1  0
  4 33  1  6
  5 34  1  0
  5 35  1  0
  8 36  1  0
 11 37  1  0
 11 38  1  0
 11 39  1  0
 12 40  1  0
 12 41  1  0
 12 42  1  0
 13 43  1  0
 13 44  1  0
 13 45  1  0
 14 46  1  1
 16 47  1  0
 17 48  1  0
 20 49  1  0
 21 50  1  0
 22 51  1  0
 23 52  1  0
 24 53  1  0
M  CHG  2   4   1  27  -1
M  END
$$$$
=
     RDKit          3D

 23 24  0  0  0  0  0  0  0  0999 V2000
   19.5010   16.8510    5.0490 C   0  0  2  0  0  0  0  0  0  0  0  0
   18.4520   17.8150    5.5620 C   0  0  0  0  0  0  0  0  0  0  0  0
   17.1960   16.9590    5.6410 C   0  0  0  0  0  0  0  0  0  0  0  0
   17.6710   15.6430    6.2310 C   0  0  0  0  0  0  0  0  0  0  0  0
   19.0400   15.4630    5.6870 N   0  0  2  0  0  4  0  0  0  0  0  0
   20.1510   15.0060    6.5710 C   0  0  0  0  0  0  0  0  0  0  0  0
   21.4180   15.6890    6.0810 C   0  0  0  0  0  0  0  0  0  0  0  0
   20.8870   17.0190    5.6310 C   0  0  0  0  0  0  0  0  0  0  0  0
   21.5000   18.0670    5.7770 O   0  0  0  0  0  0  0  0  0  0  0  0
   19.4860   15.4330    3.2200 O   0  0  0  0  0  1  0  0  0  0  0  0
   19.6320   16.6690    3.5140 C   0  0  0  0  0  0  0  0  0  0  0  0
   19.7630   17.6830    2.8010 O   0  0  0  0  0  0  0  0  0  0  0  0
   18.7262   18.2042    6.5536 H   0  0  0  0  0  0  0  0  0  0  0  0
   18.3298   18.6992    4.9191 H   0  0  0  0  0  0  0  0  0  0  0  0
   16.4451   17.4292    6.2930 H   0  0  0  0  0  0  0  0  0  0  0  0
   16.7153   16.8290    4.6601 H   0  0  0  0  0  0  0  0  0  0  0  0
   17.6931   15.6951    7.3295 H   0  0  0  0  0  0  0  0  0  0  0  0
   17.0058   14.8056    5.9737 H   0  0  0  0  0  0  0  0  0  0  0  0
   18.9113   14.6716    5.0405 H   0  0  0  0  0  0  0  0  0  0  0  0
   19.9465   15.2919    7.6133 H   0  0  0  0  0  0  0  0  0  0  0  0
   20.2560   13.9116    6.5359 H   0  0  0  0  0  0  0  0  0  0  0  0
   22.1522   15.8032    6.8921 H   0  0  0  0  0  0  0  0  0  0  0  0
   21.9534   15.1319    5.2980 H   0  0  0  0  0  0  0  0  0  0  0  0
  2  1  1  0
  3  2  1  0
  4  3  1  0
  5  4  1  0
  5  1  1  0
  6  5  1  0
  7  6  1  0
  8  7  1  0
  8  1  1  0
  9  8  2  0
 11 10  1  0
  1 11  1  6
 12 11  2  0
  2 13  1  0
  2 14  1  0
  3 15  1  0
  3 16  1  0
  4 17  1  0
  4 18  1  0
  5 19  1  6
  6 20  1  0
  6 21  1  0
  7 22  1  0
  7 23  1  0
M  CHG  2   5   1  10  -1
M  END
$$$$
=
     RDKit          3D

 21 22  0  0  0  0  0  0  0  0999 V2000
   21.0470   17.5860    5.6830 C   0  0  1  0  0  0  0  0  0  0  0  0
   20.6870   18.0080    4.2770 C   0  0  0  0  0  0  0  0  0  0  0  0
   19.6450   18.0600    5.3640 C   0  0  1  0  0  0  0  0  0  0  0  0
   18.4090   17.1310    5.2080 C   0  0  0  0  0  0  0  0  0  0  0  0
   17.3060   17.0830    6.0780 C   0  0  0  0  0  0  0  0  0  0  0  0
   16.4670   16.1420    5.5280 C   0  0  0  0  0  0  0  0  0  0  0  0
   17.0950   15.7000    4.4020 N   0  0  0  0  0  0  0  0  0  0  0  0
   18.2570   16.3270    4.1460 N   0  0  0  0  0  0  0  0  0  0  0  0
   16.6340   14.6750    3.5010 C   0  0  0  0  0  0  0  0  0  0  0  0
   21.5660   15.4120    5.0100 O   0  0  0  0  0  1  0  0  0  0  0  0
   21.3150   16.1750    5.9960 C   0  0  0  0  0  0  0  0  0  0  0  0
   21.2330   15.7940    7.2060 O   0  0  0  0  0  0  0  0  0  0  0  0
   21.8184   17.8748    6.4121 H   0  0  0  0  0  0  0  0  0  0  0  0
   21.0951   18.9414    3.8620 H   0  0  0  0  0  0  0  0  0  0  0  0
   20.7512   17.5378    3.2846 H   0  0  0  0  0  0  0  0  0  0  0  0
   18.9962   18.8060    5.8462 H   0  0  0  0  0  0  0  0  0  0  0  0
   17.1486   17.6685    6.9958 H   0  0  0  0  0  0  0  0  0  0  0  0
   15.4915   15.8142    5.9164 H   0  0  0  0  0  0  0  0  0  0  0  0
   16.2506   13.8225    4.0808 H   0  0  0  0  0  0  0  0  0  0  0  0
   15.8306   15.0783    2.8671 H   0  0  0  0  0  0  0  0  0  0  0  0
   17.4688   14.3415    2.8671 H   0  0  0  0  0  0  0  0  0  0  0  0
  2  1  1  0
  3  2  1  0
  3  1  1  0
  4  3  1  0
  5  4  1  0
  6  5  2  0
  7  6  1  0
  8  7  1  0
  8  4  2  0
  9  7  1  0
 11 10  1  0
 11  1  1  0
 12 11  2  0
  1 13  1  1
  2 14  1  0
  2 15  1  0
  3 16  1  1
  5 17  1  0
  6 18  1  0
  9 19  1  0
  9 20  1  0
  9 21  1  0
M  CHG  1  10  -1
M  END
$$$$
=
     RDKit          3D

 27 27  0  0  0  0  0  0  0  0999 V2000
   16.1180   15.6980    5.9930 C   0  0  0  0  0  0  0  0  0  0  0  0
   17.1920   16.7870    5.9330 C   0  0  0  0  0  0  0  0  0  0  0  0
   18.5430   16.3510    5.3590 C   0  0  0  0  0  0  0  0  0  0  0  0
   19.1570   15.1670    6.0970 C   0  0  0  0  0  0  0  0  0  0  0  0
   21.2610   15.4140    5.0620 O   0  0  0  0  0  1  0  0  0  0  0  0
   20.6680   15.3790    6.1770 C   0  0  0  0  0  0  0  0  0  0  0  0
   21.1320   15.4840    7.3460 O   0  0  0  0  0  0  0  0  0  0  0  0
   15.2120   15.6740    4.7630 C   0  0  0  0  0  0  0  0  0  0  0  0
   15.3310   14.4210    4.0300 N   0  0  0  0  0  0  0  0  0  0  0  0
   14.3340   13.4910    3.8820 C   0  0  0  0  0  0  0  0  0  0  0  0
   14.8300   12.4540    3.1220 C   0  0  0  0  0  0  0  0  0  0  0  0
   16.1690   12.7740    2.7960 C   0  0  0  0  0  0  0  0  0  0  0  0
   16.4520   13.9960    3.3670 C   0  0  0  0  0  0  0  0  0  0  0  0
   16.6160   14.7209    6.0789 H   0  0  0  0  0  0  0  0  0  0  0  0
   15.4808   15.9165    6.8626 H   0  0  0  0  0  0  0  0  0  0  0  0
   16.8079   17.6075    5.3092 H   0  0  0  0  0  0  0  0  0  0  0  0
   17.3868   17.0762    6.9763 H   0  0  0  0  0  0  0  0  0  0  0  0
   18.4004   16.0698    4.3051 H   0  0  0  0  0  0  0  0  0  0  0  0
   19.2342   17.1993    5.4714 H   0  0  0  0  0  0  0  0  0  0  0  0
   18.7367   15.1032    7.1115 H   0  0  0  0  0  0  0  0  0  0  0  0
   18.9345   14.2319    5.5621 H   0  0  0  0  0  0  0  0  0  0  0  0
   14.1683   15.7998    5.0867 H   0  0  0  0  0  0  0  0  0  0  0  0
   15.5192   16.4922    4.0951 H   0  0  0  0  0  0  0  0  0  0  0  0
   13.3176   13.5606    4.2968 H   0  0  0  0  0  0  0  0  0  0  0  0
   14.2857   11.5457    2.8240 H   0  0  0  0  0  0  0  0  0  0  0  0
   16.8577   12.1602    2.1969 H   0  0  0  0  0  0  0  0  0  0  0  0
   17.4088   14.5348    3.3019 H   0  0  0  0  0  0  0  0  0  0  0  0
  2  1  1  0
  3  2  1  0
  4  3  1  0
  6  5  1  0
  6  4  1  0
  7  6  2  0
  8  1  1  0
  9  8  1  0
 10  9  1  0
 11 10  2  0
 12 11  1  0
 13 12  2  0
 13  9  1  0
  1 14  1  0
  1 15  1  0
  2 16  1  0
  2 17  1  0
  3 18  1  0
  3 19  1  0
  4 20  1  0
  4 21  1  0
  8 22  1  0
  8 23  1  0
 10 24  1  0
 11 25  1  0
 12 26  1  0
 13 27  1  0
M  CHG  1   5  -1
M  END
$$$$
=
     RDKit          3D

 16 16  0  0  0  0  0  0  0  0999 V2000
   19.6470   16.0880    5.4860 C   0  0  1  0  0  0  0  0  0  0  0  0
   19.8970   17.2890    4.5700 C   0  0  0  0  0  0  0  0  0  0  0  0
   19.1560   16.9250    3.3630 N   0  0  0  0  0  0  0  0  0  0  0  0
   18.8110   15.6100    3.5060 C   0  0  0  0  0  0  0  0  0  0  0  0
   18.9820   15.0140    4.6440 N   0  0  0  0  0  0  0  0  0  0  0  0
   19.6550   17.4250    2.1040 C   0  0  0  0  0  0  0  0  0  0  0  0
   21.9040   15.4510    5.1280 O   0  0  0  0  0  1  0  0  0  0  0  0
   21.0370   15.6750    6.0260 C   0  0  0  0  0  0  0  0  0  0  0  0
   21.1500   15.5290    7.2790 O   0  0  0  0  0  0  0  0  0  0  0  0
   18.9843   16.2898    6.3404 H   0  0  0  0  0  0  0  0  0  0  0  0
   19.5042   18.2159    5.0134 H   0  0  0  0  0  0  0  0  0  0  0  0
   20.9635   17.4871    4.3872 H   0  0  0  0  0  0  0  0  0  0  0  0
   18.3878   15.0572    2.6543 H   0  0  0  0  0  0  0  0  0  0  0  0
   20.4206   18.1922    2.2917 H   0  0  0  0  0  0  0  0  0  0  0  0
   20.0980   16.5975    1.5305 H   0  0  0  0  0  0  0  0  0  0  0  0
   18.8266   17.8664    1.5305 H   0  0  0  0  0  0  0  0  0  0  0  0
  2  1  1  0
  3  2  1  0
  4  3  1  0
  5  4  2  0
  5  1  1  0
  6  3  1  0
  8  1  1  0
  8  7  1  0
  9  8  2  0
  1 10  1  1
  2 11  1  0
  2 12  1  0
  4 13  1  0
  6 14  1  0
  6 15  1  0
  6 16  1  0
M  CHG  1   7  -1
M  END
$$$$
=
     RDKit          3D

 22 23  0  0  0  0  0  0  0  0999 V2000
   19.9810   16.3910    4.5720 C   0  0  0  0  0  0  0  0  0  0  0  0
   21.2620   16.5150    5.1370 C   0  0  0  0  0  0  0  0  0  0  0  0
   21.5760   15.7900    6.2710 C   0  0  0  0  0  0  0  0  0  0  0  0
   20.7150   14.9610    6.8910 N   0  0  0  0  0  0  0  0  0  0  0  0
   19.4780   14.8740    6.3360 C   0  0  0  0  0  0  0  0  0  0  0  0
   19.0360   15.5510    5.1910 C   0  0  0  0  0  0  0  0  0  0  0  0
   17.6410   15.3980    4.7470 C   0  0  0  0  0  0  0  0  0  0  0  0
   16.5900   16.1080    5.3380 C   0  0  0  0  0  0  0  0  0  0  0  0
   15.2770   15.9080    4.9160 C   0  0  0  0  0  0  0  0  0  0  0  0
   15.0430   14.9800    3.9170 C   0  0  0  0  0  0  0  0  0  0  0  0
   16.0110   14.2530    3.3210 N   0  0  0  0  0  0  0  0  0  0  0  0
   17.2810   14.5020    3.7360 C   0  0  0  0  0  0  0  0  0  0  0  0
   19.4010   18.3930    3.4780 O   0  0  0  0  0  1  0  0  0  0  0  0
   19.6950   17.1680    3.3200 C   0  0  0  0  0  0  0  0  0  0  0  0
   19.7950   16.5500    2.2180 O   0  0  0  0  0  0  0  0  0  0  0  0
   22.0076   17.1828    4.6809 H   0  0  0  0  0  0  0  0  0  0  0  0
   22.5871   15.8963    6.6910 H   0  0  0  0  0  0  0  0  0  0  0  0
   18.7551   14.2096    6.8320 H   0  0  0  0  0  0  0  0  0  0  0  0
   16.8017   16.8290    6.1413 H   0  0  0  0  0  0  0  0  0  0  0  0
   14.4477   16.4736    5.3658 H   0  0  0  0  0  0  0  0  0  0  0  0
   14.0046   14.8254    3.5886 H   0  0  0  0  0  0  0  0  0  0  0  0
   18.0924   13.9534    3.2352 H   0  0  0  0  0  0  0  0  0  0  0  0
  2  1  2  0
  3  2  1  0
  4  3  2  0
  5  4  1  0
  6  5  2  0
  6  1  1  0
  7  6  1  0
  8  7  2  0
  9  8  1  0
 10  9  2  0
 11 10  1  0
 12 11  2  0
 12  7  1  0
 14 13  1  0
 14  1  1  0
 15 14  2  0
  2 16  1  0
  3 17  1  0
  5 18  1  0
  8 19  1  0
  9 20  1  0
 10 21  1  0
 12 22  1  0
M  CHG  1  13  -1
M  END
$$$$
=
     RDKit          3D

 33 34  0  0  0  0  0  0  0  0999 V2000
   18.2450   16.6130    4.1510 N   0  0  0  0  0  0  0  0  0  0  0  0
   18.1650   17.3710    5.3400 C   0  0  0  0  0  0  0  0  0  0  0  0
   19.0710   18.0110    5.8490 O   0  0  0  0  0  0  0  0  0  0  0  0
   16.8890   17.1450    5.8830 N   0  0  0  0  0  0  0  0  0  0  0  0
   16.2560   16.1530    5.1350 C   0  0  0  0  0  0  0  0  0  0  0  0
   17.0730   15.8520    4.0540 C   0  0  0  0  0  0  0  0  0  0  0  0
   16.7850   14.8390    3.1830 C   0  0  0  0  0  0  0  0  0  0  0  0
   15.7230   13.9870    3.5020 C   0  0  0  0  0  0  0  0  0  0  0  0
   14.8640   14.3170    4.5820 C   0  0  0  0  0  0  0  0  0  0  0  0
   15.1140   15.4320    5.4010 C   0  0  0  0  0  0  0  0  0  0  0  0
   15.6250   12.6770    2.7590 C   0  0  0  0  0  0  0  0  0  0  0  0
   14.4390   12.3210    2.4470 O   0  0  0  0  0  0  0  0  0  0  0  0
   16.7020   12.0840    2.4680 O   0  0  0  0  0  1  0  0  0  0  0  0
   19.4890   16.1940    3.5370 C   0  0  0  0  0  0  0  0  0  0  0  0
   20.1250   15.0130    4.3050 C   0  0  0  0  0  0  0  0  0  0  0  0
   20.8640   15.2590    6.7200 C   0  0  0  0  0  0  0  0  0  0  0  0
   21.2330   15.3930    5.2770 N   0  0  0  0  0  4  0  0  0  0  0  0
   21.8930   16.7260    4.9760 C   0  0  0  0  0  0  0  0  0  0  0  0
   16.4880   17.6311    6.6978 H   0  0  0  0  0  0  0  0  0  0  0  0
   17.3692   14.6985    2.2616 H   0  0  0  0  0  0  0  0  0  0  0  0
   13.9845   13.6876    4.7826 H   0  0  0  0  0  0  0  0  0  0  0  0
   14.4301   15.7145    6.2149 H   0  0  0  0  0  0  0  0  0  0  0  0
   19.2900   15.8820    2.5011 H   0  0  0  0  0  0  0  0  0  0  0  0
   20.1902   17.0412    3.5606 H   0  0  0  0  0  0  0  0  0  0  0  0
   19.3299   14.5103    4.8751 H   0  0  0  0  0  0  0  0  0  0  0  0
   20.5934   14.3713    3.5442 H   0  0  0  0  0  0  0  0  0  0  0  0
   21.7141   15.5677    7.3461 H   0  0  0  0  0  0  0  0  0  0  0  0
   19.9966   15.8996    6.9377 H   0  0  0  0  0  0  0  0  0  0  0  0
   20.6098   14.2112    6.9377 H   0  0  0  0  0  0  0  0  0  0  0  0
   21.9517   14.6752    5.1066 H   0  0  0  0  0  0  0  0  0  0  0  0
   22.1437   17.2324    5.9198 H   0  0  0  0  0  0  0  0  0  0  0  0
   22.8117   16.5574    4.3950 H   0  0  0  0  0  0  0  0  0  0  0  0
   21.2019   17.3544    4.3950 H   0  0  0  0  0  0  0  0  0  0  0  0
  2  1  1  0
  3  2  2  0
  4  2  1  0
  5  4  1  0
  6  5  2  0
  6  1  1  0
  7  6  1  0
  8  7  2  0
  9  8  1  0
 10  9  2  0
 10  5  1  0
 11  8  1  0
 12 11  2  0
 13 11  1  0
 14  1  1  0
 15 14  1  0
 17 15  1  0
 17 16  1  0
 18 17  1  0
  4 19  1  0
  7 20  1  0
  9 21  1  0
 10 22  1  0
 14 23  1  0
 14 24  1  0
 15 25  1  0
 15 26  1  0
 16 27  1  0
 16 28  1  0
 16 29  1  0
 17 30  1  0
 18 31  1  0
 18 32  1  0
 18 33  1  0
M  CHG  2  13  -1  17   1
M  END
$$$$
=
     RDKit          3D

 38 37  0  0  0  0  0  0  0  0999 V2000
   19.5750   15.0850    5.3910 C   0  0  1  0  0  0  0  0  0  0  0  0
   20.9260   15.4060    6.0620 C   0  0  0  0  0  0  0  0  0  0  0  0
   21.8970   15.6370    5.2830 O   0  0  0  0  0  0  0  0  0  0  0  0
   20.9400   15.3600    7.3320 O   0  0  0  0  0  1  0  0  0  0  0  0
   18.5950   16.1360    5.9460 C   0  0  0  0  0  0  0  0  0  0  0  0
   16.1140   15.5720    6.2300 C   0  0  0  0  0  0  0  0  0  0  0  0
   17.3940   15.5300    6.6340 C   0  0  0  0  0  0  0  0  0  0  0  0
   15.5970   16.1810    4.9580 C   0  0  0  0  0  0  0  0  0  0  0  0
   14.8170   15.1550    4.1330 C   0  0  0  0  0  0  0  0  0  0  0  0
   15.7090   14.3030    3.2230 C   0  0  0  0  0  0  0  0  0  0  0  0
   13.9030   12.5170    3.4670 C   0  0  0  0  0  0  0  0  0  0  0  0
   15.3620   12.8140    3.1570 C   0  0  0  0  0  0  0  0  0  0  0  0
   19.6090   15.1550    3.8450 C   0  0  1  0  0  0  0  0  0  0  0  0
   19.0190   13.9690    3.2700 O   0  0  0  0  0  0  0  0  0  0  0  0
   18.9350   16.3900    3.2480 C   0  0  0  0  0  0  0  0  0  0  0  0
   19.8670   17.5060    2.7610 C   0  0  0  0  0  0  0  0  0  0  0  0
   19.9890   17.6680    1.5140 O   0  0  0  0  0  0  0  0  0  0  0  0
   20.4080   18.1830    3.6900 O   0  0  0  0  0  1  0  0  0  0  0  0
   19.2849   14.0482    5.6164 H   0  0  0  0  0  0  0  0  0  0  0  0
   19.1319   16.7653    6.6711 H   0  0  0  0  0  0  0  0  0  0  0  0
   18.2210   16.7165    5.0897 H   0  0  0  0  0  0  0  0  0  0  0  0
   15.3692   15.1144    6.8978 H   0  0  0  0  0  0  0  0  0  0  0  0
   17.5907   14.9928    7.5735 H   0  0  0  0  0  0  0  0  0  0  0  0
   14.9328   17.0220    5.2064 H   0  0  0  0  0  0  0  0  0  0  0  0
   16.4547   16.5282    4.3632 H   0  0  0  0  0  0  0  0  0  0  0  0
   14.2824   14.4859    4.8233 H   0  0  0  0  0  0  0  0  0  0  0  0
   14.1294   15.7154    3.4825 H   0  0  0  0  0  0  0  0  0  0  0  0
   15.6398   14.7114    2.2040 H   0  0  0  0  0  0  0  0  0  0  0  0
   16.7179   14.3562    3.6581 H   0  0  0  0  0  0  0  0  0  0  0  0
   13.7584   12.4876    4.5571 H   0  0  0  0  0  0  0  0  0  0  0  0
   13.2685   13.3044    3.0341 H   0  0  0  0  0  0  0  0  0  0  0  0
   13.6268   11.5442    3.0341 H   0  0  0  0  0  0  0  0  0  0  0  0
   15.9888   12.2778    3.8848 H   0  0  0  0  0  0  0  0  0  0  0  0
   15.5471   12.4840    2.1241 H   0  0  0  0  0  0  0  0  0  0  0  0
   20.6761   15.2266    3.5879 H   0  0  0  0  0  0  0  0  0  0  0  0
   18.7186   13.3652    3.9948 H   0  0  0  0  0  0  0  0  0  0  0  0
   18.3310   16.0599    2.3900 H   0  0  0  0  0  0  0  0  0  0  0  0
   18.3537   16.8324    4.0704 H   0  0  0  0  0  0  0  0  0  0  0  0
  2  1  1  0
  3  2  2  0
  4  2  1  0
  5  1  1  0
  7  6  2  0
  7  5  1  0
  8  6  1  0
  9  8  1  0
 10  9  1  0
 12 11  1  0
 12 10  1  0
 13  1  1  0
 14 13  1  0
 15 13  1  0
 16 15  1  0
 17 16  2  0
 18 16  1  0
  1 19  1  6
  5 20  1  0
  5 21  1  0
  6 22  1  0
  7 23  1  0
  8 24  1  0
  8 25  1  0
  9 26  1  0
  9 27  1  0
 10 28  1  0
 10 29  1  0
 11 30  1  0
 11 31  1  0
 11 32  1  0
 12 33  1  0
 12 34  1  0
 13 35  1  6
 14 36  1  0
 15 37  1  0
 15 38  1  0
M  CHG  2   4  -1  18  -1
M  END
$$$$
=
     RDKit          3D

 36 36  0  0  0  0  0  0  0  0999 V2000
   19.0710   14.2210    3.5190 N   0  0  0  0  0  0  0  0  0  0  0  0
   19.0720   15.1550    4.5280 C   0  0  0  0  0  0  0  0  0  0  0  0
   18.2810   15.1430    5.4640 O   0  0  0  0  0  0  0  0  0  0  0  0
   20.0330   16.0970    4.3220 N   0  0  0  0  0  0  0  0  0  0  0  0
   20.4320   17.0970    5.3320 C   0  0  2  0  0  0  0  0  0  0  0  0
   19.7470   18.4290    5.0710 C   0  0  0  0  0  0  0  0  0  0  0  0
   21.9880   17.2760    5.3470 C   0  0  0  0  0  0  0  0  0  0  0  0
   22.5290   16.9260    6.4460 O   0  0  0  0  0  0  0  0  0  0  0  0
   22.5180   17.7450    4.3030 O   0  0  0  0  0  1  0  0  0  0  0  0
   18.2430   13.0370    3.6220 C   0  0  0  0  0  0  0  0  0  0  0  0
   17.1790   13.0030    2.5290 C   0  0  0  0  0  0  0  0  0  0  0  0
   13.2600   13.9780    4.0740 C   0  0  0  0  0  0  0  0  0  0  0  0
   13.5270   12.6970    3.5920 C   0  0  0  0  0  0  0  0  0  0  0  0
   14.7940   12.3850    3.0870 C   0  0  0  0  0  0  0  0  0  0  0  0
   15.8090   13.3490    3.0560 C   0  0  0  0  0  0  0  0  0  0  0  0
   15.5380   14.6310    3.5460 C   0  0  0  0  0  0  0  0  0  0  0  0
   14.2720   14.9400    4.0480 C   0  0  0  0  0  0  0  0  0  0  0  0
   10.8900   14.0020    3.9110 C   0  0  0  0  0  0  0  0  0  0  0  0
   12.0700   14.4130    4.5900 O   0  0  0  0  0  0  0  0  0  0  0  0
   19.6611   14.3638    2.6870 H   0  0  0  0  0  0  0  0  0  0  0  0
   20.5091   16.1129    3.4088 H   0  0  0  0  0  0  0  0  0  0  0  0
   20.1139   16.7317    6.3196 H   0  0  0  0  0  0  0  0  0  0  0  0
   19.5004   18.9086    6.0298 H   0  0  0  0  0  0  0  0  0  0  0  0
   20.4212   19.0818    4.4972 H   0  0  0  0  0  0  0  0  0  0  0  0
   18.8238   18.2603    4.4972 H   0  0  0  0  0  0  0  0  0  0  0  0
   18.8806   12.1455    3.5283 H   0  0  0  0  0  0  0  0  0  0  0  0
   17.7355   13.0541    4.5978 H   0  0  0  0  0  0  0  0  0  0  0  0
   17.4511   13.7274    1.7472 H   0  0  0  0  0  0  0  0  0  0  0  0
   17.1382   11.9789    2.1295 H   0  0  0  0  0  0  0  0  0  0  0  0
   12.7392   11.9295    3.6089 H   0  0  0  0  0  0  0  0  0  0  0  0
   14.9949   11.3713    2.7102 H   0  0  0  0  0  0  0  0  0  0  0  0
   16.3255   15.3989    3.5358 H   0  0  0  0  0  0  0  0  0  0  0  0
   14.0696   15.9525    4.4272 H   0  0  0  0  0  0  0  0  0  0  0  0
   10.1181   13.7332    4.6472 H   0  0  0  0  0  0  0  0  0  0  0  0
   10.5241   14.8256    3.2803 H   0  0  0  0  0  0  0  0  0  0  0  0
   11.1150   13.1293    3.2803 H   0  0  0  0  0  0  0  0  0  0  0  0
  2  1  1  0
  3  2  2  0
  4  2  1  0
  5  4  1  0
  6  5  1  0
  7  5  1  0
  8  7  2  0
  9  7  1  0
 10  1  1  0
 11 10  1  0
 13 12  2  0
 14 13  1  0
 15 14  2  0
 15 11  1  0
 16 15  1  0
 17 16  2  0
 17 12  1  0
 19 18  1  0
 19 12  1  0
  1 20  1  0
  4 21  1  0
  5 22  1  1
  6 23  1  0
  6 24  1  0
  6 25  1  0
 10 26  1  0
 10 27  1  0
 11 28  1  0
 11 29  1  0
 13 30  1  0
 14 31  1  0
 16 32  1  0
 17 33  1  0
 18 34  1  0
 18 35  1  0
 18 36  1  0
M  CHG  1   9  -1
M  END
$$$$
=
     RDKit          3D

 24 25  0  0  0  0  0  0  0  0999 V2000
   15.7430   15.2330    4.3460 C   0  0  0  0  0  0  0  0  0  0  0  0
   16.7900   14.5160    3.7980 C   0  0  0  0  0  0  0  0  0  0  0  0
   16.2840   13.4000    3.1930 N   0  0  0  0  0  0  0  0  0  0  0  0
   14.9100   13.3760    3.3020 C   0  0  0  0  0  0  0  0  0  0  0  0
   14.5460   14.5110    4.0350 C   0  0  0  0  0  0  0  0  0  0  0  0
   13.1800   14.7260    4.3210 C   0  0  0  0  0  0  0  0  0  0  0  0
   12.2240   13.8160    3.8610 C   0  0  0  0  0  0  0  0  0  0  0  0
   12.6190   12.7070    3.1290 C   0  0  0  0  0  0  0  0  0  0  0  0
   13.9590   12.4550    2.8330 C   0  0  0  0  0  0  0  0  0  0  0  0
   11.6880   11.8440    2.6940 F   0  0  0  0  0  0  0  0  0  0  0  0
   17.0810   12.3880    2.5420 C   0  0  0  0  0  0  0  0  0  0  0  0
   15.8500   16.5280    5.0910 C   0  0  0  0  0  0  0  0  0  0  0  0
   17.9360   17.2800    5.9230 O   0  0  0  0  0  1  0  0  0  0  0  0
   16.9530   16.5130    6.1520 C   0  0  0  0  0  0  0  0  0  0  0  0
   16.7910   15.6920    7.1020 O   0  0  0  0  0  0  0  0  0  0  0  0
   17.8527   14.7967    3.8416 H   0  0  0  0  0  0  0  0  0  0  0  0
   12.8695   15.6060    4.9034 H   0  0  0  0  0  0  0  0  0  0  0  0
   11.1585   13.9798    4.0798 H   0  0  0  0  0  0  0  0  0  0  0  0
   14.2591   11.5689    2.2544 H   0  0  0  0  0  0  0  0  0  0  0  0
   17.5729   11.7634    3.3022 H   0  0  0  0  0  0  0  0  0  0  0  0
   16.4332   11.7590    1.9138 H   0  0  0  0  0  0  0  0  0  0  0  0
   17.8444   12.8703    1.9138 H   0  0  0  0  0  0  0  0  0  0  0  0
   16.0661   17.3309    4.3708 H   0  0  0  0  0  0  0  0  0  0  0  0
   14.8939   16.6914    5.6098 H   0  0  0  0  0  0  0  0  0  0  0  0
  2  1  2  0
  3  2  1  0
  4  3  1  0
  5  4  2  0
  5  1  1  0
  6  5  1  0
  7  6  2  0
  8  7  1  0
  9  8  2  0
  9  4  1  0
 10  8  1  0
 11  3  1  0
 12  1  1  0
 14 12  1  0
 14 13  1  0
 15 14  2  0
  2 16  1  0
  6 17  1  0
  7 18  1  0
  9 19  1  0
 11 20  1  0
 11 21  1  0
 11 22  1  0
 12 23  1  0
 12 24  1  0
M  CHG  1  13  -1
M  END
$$$$
=
     RDKit          3D

 37 36  0  0  0  0  0  0  0  0999 V2000
   16.8990   15.1190    4.4110 C   0  0  1  0  0  0  0  0  0  0  0  0
   17.9260   16.0650    3.9450 N   0  0  0  0  0  0  0  0  0  0  0  0
   19.1820   15.7390    3.5660 C   0  0  0  0  0  0  0  0  0  0  0  0
   19.6080   14.6060    3.4050 O   0  0  0  0  0  0  0  0  0  0  0  0
   19.8970   16.8780    3.3960 O   0  0  0  0  0  0  0  0  0  0  0  0
   20.6220   17.4690    4.5000 C   0  0  0  0  0  0  0  0  0  0  0  0
   19.7350   18.4260    5.3050 C   0  0  0  0  0  0  0  0  0  0  0  0
   21.7440   18.2850    3.8370 C   0  0  0  0  0  0  0  0  0  0  0  0
   21.2610   16.3950    5.3880 C   0  0  0  0  0  0  0  0  0  0  0  0
   16.1590   15.6380    5.6900 C   0  0  0  0  0  0  0  0  0  0  0  0
   16.7710   16.5690    6.3020 O   0  0  0  0  0  0  0  0  0  0  0  0
   15.0620   15.0790    5.9670 O   0  0  0  0  0  1  0  0  0  0  0  0
   15.9110   14.7530    3.2950 C   0  0  0  0  0  0  0  0  0  0  0  0
   16.0890   13.3220    2.7640 C   0  0  0  0  0  0  0  0  0  0  0  0
   15.0090   12.3560    3.2650 C   0  0  0  0  0  0  0  0  0  0  0  0
   12.5500   12.5920    2.8010 C   0  0  0  0  0  0  0  0  0  0  0  0
   13.6600   12.9990    3.4310 C   0  0  0  0  0  0  0  0  0  0  0  0
   17.4244   14.1956    4.6960 H   0  0  0  0  0  0  0  0  0  0  0  0
   17.6653   17.0606    3.9042 H   0  0  0  0  0  0  0  0  0  0  0  0
   19.8930   18.2555    6.3802 H   0  0  0  0  0  0  0  0  0  0  0  0
   19.9965   19.4651    5.0562 H   0  0  0  0  0  0  0  0  0  0  0  0
   18.6791   18.2440    5.0562 H   0  0  0  0  0  0  0  0  0  0  0  0
   22.3732   18.7426    4.6146 H   0  0  0  0  0  0  0  0  0  0  0  0
   22.3590   17.6217    3.2110 H   0  0  0  0  0  0  0  0  0  0  0  0
   21.3025   19.0744    3.2110 H   0  0  0  0  0  0  0  0  0  0  0  0
   21.1067   16.6544    6.4458 H   0  0  0  0  0  0  0  0  0  0  0  0
   20.7955   15.4208    5.1777 H   0  0  0  0  0  0  0  0  0  0  0  0
   22.3393   16.3392    5.1777 H   0  0  0  0  0  0  0  0  0  0  0  0
   14.8886   14.8539    3.6882 H   0  0  0  0  0  0  0  0  0  0  0  0
   16.1041   15.4363    2.4549 H   0  0  0  0  0  0  0  0  0  0  0  0
   16.0518   13.3492    1.6650 H   0  0  0  0  0  0  0  0  0  0  0  0
   17.0567   12.9527    3.1343 H   0  0  0  0  0  0  0  0  0  0  0  0
   14.9156   11.5325    2.5417 H   0  0  0  0  0  0  0  0  0  0  0  0
   15.3246   12.0046    4.2584 H   0  0  0  0  0  0  0  0  0  0  0  0
   11.5970   13.1137    2.9735 H   0  0  0  0  0  0  0  0  0  0  0  0
   12.5915   11.7362    2.1112 H   0  0  0  0  0  0  0  0  0  0  0  0
   13.5794   13.8582    4.1131 H   0  0  0  0  0  0  0  0  0  0  0  0
  2  1  1  0
  3  2  1  0
  4  3  2  0
  5  3  1  0
  6  5  1  0
  7  6  1  0
  8  6  1  0
  9  6  1  0
 10  1  1  0
 11 10  2  0
 12 10  1  0
 13  1  1  0
 14 13  1  0
 15 14  1  0
 17 16  2  3
 17 15  1  0
  1 18  1  1
  2 19  1  0
  7 20  1  0
  7 21  1  0
  7 22  1  0
  8 23  1  0
  8 24  1  0
  8 25  1  0
  9 26  1  0
  9 27  1  0
  9 28  1  0
 13 29  1  0
 13 30  1  0
 14 31  1  0
 14 32  1  0
 15 33  1  0
 15 34  1  0
 16 35  1  0
 16 36  1  0
 17 37  1  0
M  CHG  1  12  -1
M  END
$$$$
=
     RDKit          3D

 44 45  0  0  0  0  0  0  0  0999 V2000
   20.2700   16.6550    4.4090 C   0  0  2  0  0  0  0  0  0  0  0  0
   20.9250   17.9650    3.8930 C   0  0  0  0  0  0  0  0  0  0  0  0
   21.6090   18.7230    4.5720 O   0  0  0  0  0  0  0  0  0  0  0  0
   20.8090   18.1900    2.5400 N   0  0  0  0  0  0  0  0  0  0  0  0
   20.0470   17.3040    1.6900 C   0  0  0  0  0  0  0  0  0  0  0  0
   18.7220   16.9270    2.3500 C   0  0  0  0  0  0  0  0  0  0  0  0
   18.9390   16.2880    3.6930 N   0  0  1  0  0  4  0  0  0  0  0  0
   20.1220   16.6430    5.9260 C   0  0  0  0  0  0  0  0  0  0  0  0
   22.2990   16.3780    6.7260 O   0  0  0  0  0  1  0  0  0  0  0  0
   21.1900   15.7760    6.5690 C   0  0  0  0  0  0  0  0  0  0  0  0
   20.8320   14.6350    6.9300 O   0  0  0  0  0  0  0  0  0  0  0  0
   18.4320   14.8910    3.8690 C   0  0  0  0  0  0  0  0  0  0  0  0
   16.9230   14.7370    3.8580 C   0  0  0  0  0  0  0  0  0  0  0  0
   16.1730   15.7350    4.5090 C   0  0  0  0  0  0  0  0  0  0  0  0
   14.7840   15.6660    4.6060 C   0  0  0  0  0  0  0  0  0  0  0  0
   14.0950   14.5910    4.0580 C   0  0  0  0  0  0  0  0  0  0  0  0
   14.8100   13.5740    3.3900 C   0  0  0  0  0  0  0  0  0  0  0  0
   16.2270   13.6690    3.2390 C   0  0  0  0  0  0  0  0  0  0  0  0
   16.9290   12.6180    2.4100 C   0  0  0  0  0  0  0  0  0  0  0  0
   14.0450   12.4210    2.7740 C   0  0  0  0  0  0  0  0  0  0  0  0
   12.7340   14.4410    4.1070 O   0  0  0  0  0  0  0  0  0  0  0  0
   12.1690   13.8870    5.2900 C   0  0  0  0  0  0  0  0  0  0  0  0
   20.9770   15.8566    4.1393 H   0  0  0  0  0  0  0  0  0  0  0  0
   21.2759   19.0084    2.1240 H   0  0  0  0  0  0  0  0  0  0  0  0
   19.8432   17.8082    0.7338 H   0  0  0  0  0  0  0  0  0  0  0  0
   20.6311   16.3871    1.5221 H   0  0  0  0  0  0  0  0  0  0  0  0
   18.1159   17.8357    2.4800 H   0  0  0  0  0  0  0  0  0  0  0  0
   18.2068   16.2028    1.7019 H   0  0  0  0  0  0  0  0  0  0  0  0
   18.2525   16.7897    4.2743 H   0  0  0  0  0  0  0  0  0  0  0  0
   20.2168   17.6713    6.3050 H   0  0  0  0  0  0  0  0  0  0  0  0
   19.1347   16.2291    6.1790 H   0  0  0  0  0  0  0  0  0  0  0  0
   18.8412   14.2768    3.0533 H   0  0  0  0  0  0  0  0  0  0  0  0
   18.7602   14.5748    4.8701 H   0  0  0  0  0  0  0  0  0  0  0  0
   16.6978   16.5934    4.9536 H   0  0  0  0  0  0  0  0  0  0  0  0
   14.2308   16.4665    5.1189 H   0  0  0  0  0  0  0  0  0  0  0  0
   17.4152   11.8901    3.0761 H   0  0  0  0  0  0  0  0  0  0  0  0
   16.1945   12.1007    1.7753 H   0  0  0  0  0  0  0  0  0  0  0  0
   17.6882   13.0984    1.7753 H   0  0  0  0  0  0  0  0  0  0  0  0
   13.6266   11.7904    3.5723 H   0  0  0  0  0  0  0  0  0  0  0  0
   13.2280   12.8142    2.1512 H   0  0  0  0  0  0  0  0  0  0  0  0
   14.7248   11.8211    2.1512 H   0  0  0  0  0  0  0  0  0  0  0  0
   12.6390   14.3478    6.1714 H   0  0  0  0  0  0  0  0  0  0  0  0
   11.0869   14.0838    5.3065 H   0  0  0  0  0  0  0  0  0  0  0  0
   12.3445   12.8012    5.3065 H   0  0  0  0  0  0  0  0  0  0  0  0
  2  1  1  0
  3  2  2  0
  4  2  1  0
  5  4  1  0
  6  5  1  0
  7  6  1  0
  7  1  1  0
  8  1  1  0
 10  8  1  0
 10  9  1  0
 11 10  2  0
 12  7  1  0
 13 12  1  0
 14 13  2  0
 15 14  1  0
 16 15  2  0
 17 16  1  0
 18 17  2  0
 18 13  1  0
 19 18  1  0
 20 17  1  0
 21 16  1  0
 22 21  1  0
  1 23  1  1
  4 24  1  0
  5 25  1  0
  5 26  1  0
  6 27  1  0
  6 28  1  0
  7 29  1  1
  8 30  1  0
  8 31  1  0
 12 32  1  0
 12 33  1  0
 14 34  1  0
 15 35  1  0
 19 36  1  0
 19 37  1  0
 19 38  1  0
 20 39  1  0
 20 40  1  0
 20 41  1  0
 22 42  1  0
 22 43  1  0
 22 44  1  0
M  CHG  2   7   1   9  -1
M  END
$$$$
=
     RDKit          3D

 67 71  0  0  0  0  0  0  0  0999 V2000
   25.1240   24.3170   14.5490 O   0  0  0  0  0  0  0  0  0  0  0  0
   24.6820   24.5380   13.4270 C   0  0  0  0  0  0  0  0  0  0  0  0
   23.3460   24.4120   13.0700 N   0  0  0  0  0  0  0  0  0  0  0  0
   22.8950   24.6030   11.6490 C   0  0  0  0  0  0  0  0  0  0  0  0
   21.8020   23.6560   11.1040 C   0  0  0  0  0  0  0  0  0  0  0  0
   21.1430   24.8460   10.5880 N   0  0  0  0  0  0  0  0  0  0  0  0
   21.8850   25.7560   11.4380 C   0  0  0  0  0  0  0  0  0  0  0  0
   19.8640   24.9920   10.1380 C   0  0  0  0  0  0  0  0  0  0  0  0
   19.2730   26.0640   10.1050 O   0  0  0  0  0  0  0  0  0  0  0  0
   19.3490   23.8010    9.7430 O   0  0  0  0  0  0  0  0  0  0  0  0
   18.1370   23.2740   10.3350 C   0  0  0  0  0  0  0  0  0  0  0  0
   18.2110   21.7590   10.0900 C   0  0  0  0  0  0  0  0  0  0  0  0
   16.8890   23.8230    9.6360 C   0  0  0  0  0  0  0  0  0  0  0  0
   18.1030   23.5220   11.8470 C   0  0  0  0  0  0  0  0  0  0  0  0
   22.5130   23.6220   13.9710 C   0  0  0  0  0  0  0  0  0  0  0  0
   21.8440   24.5300   14.9360 C   0  0  0  0  0  0  0  0  0  0  0  0
   20.6430   25.2080   14.9270 C   0  0  0  0  0  0  0  0  0  0  0  0
   20.6050   25.9520   16.1290 C   0  0  0  0  0  0  0  0  0  0  0  0
   21.7860   25.6940   16.8010 C   0  0  0  0  0  0  0  0  0  0  0  0
   22.5380   24.8120   16.0720 O   0  0  0  0  0  0  0  0  0  0  0  0
   22.2000   26.3350   18.1900 C   0  0  0  0  0  0  0  0  0  0  0  0
   23.4260   26.2600   18.5080 O   0  0  0  0  0  0  0  0  0  0  0  0
   21.2660   26.8760   18.8600 O   0  0  0  0  0  1  0  0  0  0  0  0
   25.4530   24.9200   12.3740 O   0  0  0  0  0  0  0  0  0  0  0  0
   25.9270   26.2800   12.3850 C   0  0  0  0  0  0  0  0  0  0  0  0
   27.4340   26.2790   12.1100 C   0  0  0  0  0  0  0  0  0  0  0  0
   28.0020   24.8710   11.9360 C   0  0  0  0  0  0  0  0  0  0  0  0
   27.6720   23.9160   10.9850 C   0  0  0  0  0  0  0  0  0  0  0  0
   28.3370   22.6890   11.0210 C   0  0  0  0  0  0  0  0  0  0  0  0
   29.3180   22.4330   11.9920 C   0  0  0  0  0  0  0  0  0  0  0  0
   29.6540   23.4010   12.9430 C   0  0  0  0  0  0  0  0  0  0  0  0
   28.9950   24.6200   12.9080 C   0  0  0  0  0  0  0  0  0  0  0  0
   29.1420   25.7940   13.7420 C   0  0  0  0  0  0  0  0  0  0  0  0
   28.2440   26.7880   13.2990 C   0  0  0  0  0  0  0  0  0  0  0  0
   28.1880   28.0320   13.9100 C   0  0  0  0  0  0  0  0  0  0  0  0
   29.0380   28.2740   14.9910 C   0  0  0  0  0  0  0  0  0  0  0  0
   29.9260   27.2840   15.4420 C   0  0  0  0  0  0  0  0  0  0  0  0
   29.9840   26.0350   14.8150 C   0  0  0  0  0  0  0  0  0  0  0  0
   23.9053   24.5979   11.2140 H   0  0  0  0  0  0  0  0  0  0  0  0
   22.1458   22.9488   10.3348 H   0  0  0  0  0  0  0  0  0  0  0  0
   21.2812   22.9323   11.7482 H   0  0  0  0  0  0  0  0  0  0  0  0
   22.2934   26.6381   10.9232 H   0  0  0  0  0  0  0  0  0  0  0  0
   21.4141   26.2811   12.2821 H   0  0  0  0  0  0  0  0  0  0  0  0
   18.2367   21.2323   11.0554 H   0  0  0  0  0  0  0  0  0  0  0  0
   17.3276   21.4362    9.5196 H   0  0  0  0  0  0  0  0  0  0  0  0
   19.1217   21.5239    9.5196 H   0  0  0  0  0  0  0  0  0  0  0  0
   16.1573   24.1449   10.3916 H   0  0  0  0  0  0  0  0  0  0  0  0
   17.1685   24.6812    9.0073 H   0  0  0  0  0  0  0  0  0  0  0  0
   16.4452   23.0370    9.0073 H   0  0  0  0  0  0  0  0  0  0  0  0
   18.2338   22.5677   12.3781 H   0  0  0  0  0  0  0  0  0  0  0  0
   18.9152   24.2102   12.1240 H   0  0  0  0  0  0  0  0  0  0  0  0
   17.1356   23.9662   12.1240 H   0  0  0  0  0  0  0  0  0  0  0  0
   21.7537   23.0788   13.3893 H   0  0  0  0  0  0  0  0  0  0  0  0
   23.1384   22.8989   14.5152 H   0  0  0  0  0  0  0  0  0  0  0  0
   19.8713   25.1764   14.1438 H   0  0  0  0  0  0  0  0  0  0  0  0
   19.7909   26.6107   16.4656 H   0  0  0  0  0  0  0  0  0  0  0  0
   25.4092   26.8584   11.6057 H   0  0  0  0  0  0  0  0  0  0  0  0
   25.7258   26.7383   13.3645 H   0  0  0  0  0  0  0  0  0  0  0  0
   27.5207   26.9049   11.2096 H   0  0  0  0  0  0  0  0  0  0  0  0
   26.9061   24.1204   10.2223 H   0  0  0  0  0  0  0  0  0  0  0  0
   28.0896   21.9143   10.2803 H   0  0  0  0  0  0  0  0  0  0  0  0
   29.8286   21.4588   12.0047 H   0  0  0  0  0  0  0  0  0  0  0  0
   30.4242   23.1998   13.7022 H   0  0  0  0  0  0  0  0  0  0  0  0
   27.4932   28.8064   13.5528 H   0  0  0  0  0  0  0  0  0  0  0  0
   29.0118   29.2513   15.4951 H   0  0  0  0  0  0  0  0  0  0  0  0
   30.5838   27.4932   16.2985 H   0  0  0  0  0  0  0  0  0  0  0  0
   30.6827   25.2614   15.1662 H   0  0  0  0  0  0  0  0  0  0  0  0
  2  1  2  0
  3  2  1  0
  4  3  1  0
  5  4  1  0
  6  5  1  0
  7  6  1  0
  7  4  1  0
  8  6  1  0
  9  8  2  0
 10  8  1  0
 11 10  1  0
 12 11  1  0
 13 11  1  0
 14 11  1  0
 15  3  1  0
 16 15  1  0
 17 16  2  0
 18 17  1  0
 19 18  2  0
 20 19  1  0
 20 16  1  0
 21 19  1  0
 22 21  2  0
 23 21  1  0
 24  2  1  0
 25 24  1  0
 26 25  1  0
 27 26  1  0
 28 27  2  0
 29 28  1  0
 30 29  2  0
 31 30  1  0
 32 31  2  0
 32 27  1  0
 33 32  1  0
 34 33  2  0
 34 26  1  0
 35 34  1  0
 36 35  2  0
 37 36  1  0
 38 33  1  0
 38 37  2  0
  4 39  1  0
  5 40  1  0
  5 41  1  0
  7 42  1  0
  7 43  1  0
 12 44  1  0
 12 45  1  0
 12 46  1  0
 13 47  1  0
 13 48  1  0
 13 49  1  0
 14 50  1  0
 14 51  1  0
 14 52  1  0
 15 53  1  0
 15 54  1  0
 17 55  1  0
 18 56  1  0
 25 57  1  0
 25 58  1  0
 26 59  1  0
 28 60  1  0
 29 61  1  0
 30 62  1  0
 31 63  1  0
 35 64  1  0
 36 65  1  0
 37 66  1  0
 38 67  1  0
M  CHG  1  23  -1
M  END
$$$$
=
     RDKit          3D

 32 32  0  0  0  0  0  0  0  0999 V2000
   19.0050   16.1890    3.5600 C   0  0  1  0  0  0  0  0  0  0  0  0
   19.4770   17.5300    2.9690 C   0  0  0  0  0  0  0  0  0  0  0  0
   19.5930   18.4680    3.8100 O   0  0  0  0  0  0  0  0  0  0  0  0
   19.6730   17.5520    1.7210 O   0  0  0  0  0  1  0  0  0  0  0  0
   20.2060   15.5330    4.2690 C   0  0  0  0  0  0  0  0  0  0  0  0
   20.2530   14.6730    6.6300 C   0  0  0  0  0  0  0  0  0  0  0  0
   20.3990   15.9190    5.7510 C   0  0  0  0  0  0  0  0  0  0  0  0
   21.7560   16.5750    6.0130 C   0  0  0  0  0  0  0  0  0  0  0  0
   17.8650   16.4240    4.5650 C   0  0  0  0  0  0  0  0  0  0  0  0
   16.6590   15.5380    4.3300 C   0  0  0  0  0  0  0  0  0  0  0  0
   16.7490   14.4140    3.4990 C   0  0  0  0  0  0  0  0  0  0  0  0
   15.6330   13.6020    3.2820 C   0  0  0  0  0  0  0  0  0  0  0  0
   14.4170   13.9120    3.8890 C   0  0  0  0  0  0  0  0  0  0  0  0
   14.3150   15.0340    4.7090 C   0  0  0  0  0  0  0  0  0  0  0  0
   15.4310   15.8430    4.9280 C   0  0  0  0  0  0  0  0  0  0  0  0
   18.6277   15.5339    2.7609 H   0  0  0  0  0  0  0  0  0  0  0  0
   20.0743   14.4421    4.2180 H   0  0  0  0  0  0  0  0  0  0  0  0
   21.1010   15.8985    3.7443 H   0  0  0  0  0  0  0  0  0  0  0  0
   20.2873   14.9658    7.6898 H   0  0  0  0  0  0  0  0  0  0  0  0
   19.2914   14.1837    6.4157 H   0  0  0  0  0  0  0  0  0  0  0  0
   21.0755   13.9747    6.4157 H   0  0  0  0  0  0  0  0  0  0  0  0
   19.6232   16.6576    6.0012 H   0  0  0  0  0  0  0  0  0  0  0  0
   21.9213   16.6549    7.0976 H   0  0  0  0  0  0  0  0  0  0  0  0
   22.5521   15.9623    5.5649 H   0  0  0  0  0  0  0  0  0  0  0  0
   21.7703   17.5795    5.5649 H   0  0  0  0  0  0  0  0  0  0  0  0
   18.2480   16.2291    5.5776 H   0  0  0  0  0  0  0  0  0  0  0  0
   17.5314   17.4644    4.4378 H   0  0  0  0  0  0  0  0  0  0  0  0
   17.7053   14.1689    3.0138 H   0  0  0  0  0  0  0  0  0  0  0  0
   15.7139   12.7181    2.6322 H   0  0  0  0  0  0  0  0  0  0  0  0
   13.5387   13.2714    3.7208 H   0  0  0  0  0  0  0  0  0  0  0  0
   13.3544   15.2822    5.1840 H   0  0  0  0  0  0  0  0  0  0  0  0
   15.3447   16.7277    5.5760 H   0  0  0  0  0  0  0  0  0  0  0  0
  2  1  1  0
  3  2  2  0
  4  2  1  0
  5  1  1  0
  7  5  1  0
  7  6  1  0
  8  7  1  0
  9  1  1  0
 10  9  1  0
 11 10  2  0
 12 11  1  0
 13 12  2  0
 14 13  1  0
 15 14  2  0
 15 10  1  0
  1 16  1  6
  5 17  1  0
  5 18  1  0
  6 19  1  0
  6 20  1  0
  6 21  1  0
  7 22  1  0
  8 23  1  0
  8 24  1  0
  8 25  1  0
  9 26  1  0
  9 27  1  0
 11 28  1  0
 12 29  1  0
 13 30  1  0
 14 31  1  0
 15 32  1  0
M  CHG  1   4  -1
M  END
$$$$
=
     RDKit          3D

 41 44  0  0  0  0  0  0  0  0999 V2000
   18.9590   16.1140    5.1450 C   0  0  0  0  0  0  0  0  0  0  0  0
   19.7860   15.3720    4.1510 C   0  0  0  0  0  0  0  0  0  0  0  0
   20.9360   15.6880    3.8600 O   0  0  0  0  0  0  0  0  0  0  0  0
   19.1700   14.3220    3.4850 O   0  0  0  0  0  0  0  0  0  0  0  0
   17.7900   14.0750    3.5980 C   0  0  0  0  0  0  0  0  0  0  0  0
   16.9940   14.8360    4.4520 C   0  0  0  0  0  0  0  0  0  0  0  0
   17.6320   15.8810    5.2780 C   0  0  0  0  0  0  0  0  0  0  0  0
   16.7640   16.6060    6.2770 C   0  0  0  0  0  0  0  0  0  0  0  0
   15.6140   14.5520    4.5000 C   0  0  0  0  0  0  0  0  0  0  0  0
   15.0710   13.5270    3.6930 C   0  0  0  0  0  0  0  0  0  0  0  0
   15.9340   12.8070    2.8760 C   0  0  0  0  0  0  0  0  0  0  0  0
   17.3000   13.0410    2.7910 C   0  0  0  0  0  0  0  0  0  0  0  0
   15.2510   11.8580    2.1800 O   0  0  0  0  0  0  0  0  0  0  0  0
   13.9480   11.9590    2.5490 C   0  0  0  0  0  0  0  0  0  0  0  0
   13.7740   12.9680    3.4760 C   0  0  0  0  0  0  0  0  0  0  0  0
   12.4830   13.3250    4.0370 C   0  0  0  0  0  0  0  0  0  0  0  0
   11.3840   13.5310    3.1960 C   0  0  0  0  0  0  0  0  0  0  0  0
   10.1400   13.8800    3.7300 C   0  0  0  0  0  0  0  0  0  0  0  0
    9.9780   14.0390    5.1110 C   0  0  0  0  0  0  0  0  0  0  0  0
   11.0730   13.8180    5.9520 C   0  0  0  0  0  0  0  0  0  0  0  0
   12.3180   13.4690    5.4190 C   0  0  0  0  0  0  0  0  0  0  0  0
    8.6360   14.3860    5.6840 C   0  0  0  0  0  0  0  0  0  0  0  0
   19.7290   17.1200    5.9720 C   0  0  0  0  0  0  0  0  0  0  0  0
   19.6470   18.6670    4.1970 O   0  0  0  0  0  1  0  0  0  0  0  0
   19.4930   18.5380    5.4470 C   0  0  0  0  0  0  0  0  0  0  0  0
   19.1630   19.4070    6.3020 O   0  0  0  0  0  0  0  0  0  0  0  0
   17.0800   16.3420    7.2970 H   0  0  0  0  0  0  0  0  0  0  0  0
   16.8654   17.6916    6.1311 H   0  0  0  0  0  0  0  0  0  0  0  0
   15.7138   16.3129    6.1311 H   0  0  0  0  0  0  0  0  0  0  0  0
   14.9580   15.1300    5.1676 H   0  0  0  0  0  0  0  0  0  0  0  0
   17.9550   12.4520    2.1321 H   0  0  0  0  0  0  0  0  0  0  0  0
   13.1391   11.3222    2.1614 H   0  0  0  0  0  0  0  0  0  0  0  0
   11.4995   13.4177    2.1080 H   0  0  0  0  0  0  0  0  0  0  0  0
    9.2814   14.0309    3.0592 H   0  0  0  0  0  0  0  0  0  0  0  0
   10.9543   13.9194    7.0409 H   0  0  0  0  0  0  0  0  0  0  0  0
   13.1736   13.3066    6.0910 H   0  0  0  0  0  0  0  0  0  0  0  0
    8.6915   14.3716    6.7825 H   0  0  0  0  0  0  0  0  0  0  0  0
    8.3410   15.3900    5.3449 H   0  0  0  0  0  0  0  0  0  0  0  0
    7.8913   13.6509    5.3449 H   0  0  0  0  0  0  0  0  0  0  0  0
   19.3941   17.0608    7.0181 H   0  0  0  0  0  0  0  0  0  0  0  0
   20.8024   16.8894    5.9040 H   0  0  0  0  0  0  0  0  0  0  0  0
  2  1  1  0
  3  2  2  0
  4  2  1  0
  5  4  1  0
  6  5  2  0
  7  6  1  0
  7  1  2  0
  8  7  1  0
  9  6  1  0
 10  9  2  0
 11 10  1  0
 12 11  2  0
 12  5  1  0
 13 11  1  0
 14 13  1  0
 15 14  2  0
 15 10  1  0
 16 15  1  0
 17 16  2  0
 18 17  1  0
 19 18  2  0
 20 19  1  0
 21 16  1  0
 21 20  2  0
 22 19  1  0
 23  1  1  0
 25 24  1  0
 25 23  1  0
 26 25  2  0
  8 27  1  0
  8 28  1  0
  8 29  1  0
  9 30  1  0
 12 31  1  0
 14 32  1  0
 17 33  1  0
 18 34  1  0
 20 35  1  0
 21 36  1  0
 22 37  1  0
 22 38  1  0
 22 39  1  0
 23 40  1  0
 23 41  1  0
M  CHG  1  24  -1
M  END
$$$$
=
     RDKit          3D

 22 22  0  0  0  0  0  0  0  0999 V2000
   18.2970   15.0070    4.1370 C   0  0  0  0  0  0  0  0  0  0  0  0
   16.8980   15.0350    4.1480 C   0  0  0  0  0  0  0  0  0  0  0  0
   16.2200   15.9710    4.9290 C   0  0  0  0  0  0  0  0  0  0  0  0
   16.9420   16.8860    5.6890 C   0  0  0  0  0  0  0  0  0  0  0  0
   18.3380   16.8720    5.6570 C   0  0  0  0  0  0  0  0  0  0  0  0
   19.0430   15.9420    4.8680 C   0  0  0  0  0  0  0  0  0  0  0  0
   18.0220   12.9250    3.1850 C   0  0  0  0  0  0  0  0  0  0  0  0
   18.8780   14.0620    3.3310 O   0  0  0  0  0  0  0  0  0  0  0  0
   20.5530   15.9770    4.8470 C   0  0  2  0  0  0  0  0  0  0  0  0
   21.1670   15.7410    6.2670 C   0  0  0  0  0  0  0  0  0  0  0  0
   22.0400   16.6140    6.5840 O   0  0  0  0  0  0  0  0  0  0  0  0
   20.7820   14.7230    6.9080 O   0  0  0  0  0  1  0  0  0  0  0  0
   20.9880   17.2800    4.3590 O   0  0  0  0  0  0  0  0  0  0  0  0
   16.3308   14.3162    3.5385 H   0  0  0  0  0  0  0  0  0  0  0  0
   15.1202   15.9857    4.9440 H   0  0  0  0  0  0  0  0  0  0  0  0
   16.4133   17.6201    6.3148 H   0  0  0  0  0  0  0  0  0  0  0  0
   18.8983   17.6017    6.2599 H   0  0  0  0  0  0  0  0  0  0  0  0
   17.7390   12.5490    4.1793 H   0  0  0  0  0  0  0  0  0  0  0  0
   17.1169   13.2161    2.6317 H   0  0  0  0  0  0  0  0  0  0  0  0
   18.5520   12.1357    2.6317 H   0  0  0  0  0  0  0  0  0  0  0  0
   20.9002   15.1678    4.1877 H   0  0  0  0  0  0  0  0  0  0  0  0
   21.1854   17.8713    5.1281 H   0  0  0  0  0  0  0  0  0  0  0  0
  2  1  2  0
  3  2  1  0
  4  3  2  0
  5  4  1  0
  6  1  1  0
  6  5  2  0
  8  7  1  0
  8  1  1  0
  9  6  1  0
 10  9  1  0
 11 10  2  0
 12 10  1  0
 13  9  1  0
  2 14  1  0
  3 15  1  0
  4 16  1  0
  5 17  1  0
  7 18  1  0
  7 19  1  0
  7 20  1  0
  9 21  1  6
 13 22  1  0
M  CHG  1  12  -1
M  END
$$$$
=
     RDKit          3D

 48 51  0  0  0  0  0  0  0  0999 V2000
   28.5180   27.0850   11.9440 O   0  0  0  0  0  0  0  0  0  0  0  0
   27.7510   26.3150   12.5210 C   0  0  0  0  0  0  0  0  0  0  0  0
   27.7030   26.1880   13.8900 N   0  0  0  0  0  0  0  0  0  0  0  0
   28.3390   27.0860   14.8480 C   0  0  1  0  0  0  0  0  0  0  0  0
   28.0410   28.5680   14.5140 C   0  0  0  0  0  0  0  0  0  0  0  0
   28.6690   29.4970   15.5670 C   0  0  1  0  0  0  0  0  0  0  0  0
   28.0790   29.1720   16.9480 C   0  0  0  0  0  0  0  0  0  0  0  0
   28.3810   27.7110   17.3170 C   0  0  1  0  0  0  0  0  0  0  0  0
   27.7620   26.7850   16.2580 C   0  0  0  0  0  0  0  0  0  0  0  0
   29.9020   27.4960   17.3470 C   0  0  0  0  0  0  0  0  0  0  0  0
   30.5010   27.8110   15.9680 C   0  0  1  0  0  0  0  0  0  0  0  0
   29.8730   26.8800   14.9150 C   0  0  0  0  0  0  0  0  0  0  0  0
   30.1900   29.2720   15.5990 C   0  0  0  0  0  0  0  0  0  0  0  0
   26.7850   25.3780   11.7680 C   0  0  2  0  0  0  0  0  0  0  0  0
   25.3190   25.7950   11.9970 C   0  0  0  0  0  0  0  0  0  0  0  0
   24.7720   25.4060   13.3710 C   0  0  0  0  0  0  0  0  0  0  0  0
   25.0180   23.9400   13.6950 C   0  0  0  0  0  0  0  0  0  0  0  0
   26.4830   23.5500   13.5120 C   0  0  0  0  0  0  0  0  0  0  0  0
   26.9760   23.8780   12.0970 C   0  0  2  0  0  0  0  0  0  0  0  0
   28.3800   23.3130   11.8110 C   0  0  0  0  0  0  0  0  0  0  0  0
   29.2250   23.4890   12.7400 O   0  0  0  0  0  0  0  0  0  0  0  0
   28.5500   22.7560   10.6940 O   0  0  0  0  0  1  0  0  0  0  0  0
   27.1730   25.3912   14.2710 H   0  0  0  0  0  0  0  0  0  0  0  0
   28.4597   28.8070   13.5253 H   0  0  0  0  0  0  0  0  0  0  0  0
   26.9514   28.7191   14.5124 H   0  0  0  0  0  0  0  0  0  0  0  0
   28.4546   30.5450   15.3109 H   0  0  0  0  0  0  0  0  0  0  0  0
   28.5257   29.8379   17.7010 H   0  0  0  0  0  0  0  0  0  0  0  0
   26.9893   29.3198   16.9194 H   0  0  0  0  0  0  0  0  0  0  0  0
   27.9562   27.4846   18.3061 H   0  0  0  0  0  0  0  0  0  0  0  0
   26.6726   26.9366   16.2405 H   0  0  0  0  0  0  0  0  0  0  0  0
   28.0027   25.7441   16.5197 H   0  0  0  0  0  0  0  0  0  0  0  0
   30.3498   28.1613   18.0999 H   0  0  0  0  0  0  0  0  0  0  0  0
   30.1149   26.4478   17.6039 H   0  0  0  0  0  0  0  0  0  0  0  0
   31.5901   27.6588   15.9964 H   0  0  0  0  0  0  0  0  0  0  0  0
   30.0857   25.8349   15.1842 H   0  0  0  0  0  0  0  0  0  0  0  0
   30.3051   27.1160   13.9313 H   0  0  0  0  0  0  0  0  0  0  0  0
   30.6409   29.9401   16.3475 H   0  0  0  0  0  0  0  0  0  0  0  0
   30.6069   29.4886   14.6044 H   0  0  0  0  0  0  0  0  0  0  0  0
   27.0373   25.4922   10.7034 H   0  0  0  0  0  0  0  0  0  0  0  0
   25.2494   26.8879   11.8932 H   0  0  0  0  0  0  0  0  0  0  0  0
   24.7143   25.2606   11.2494 H   0  0  0  0  0  0  0  0  0  0  0  0
   25.2637   26.0249   14.1360 H   0  0  0  0  0  0  0  0  0  0  0  0
   23.6845   25.5709   13.3599 H   0  0  0  0  0  0  0  0  0  0  0  0
   24.7293   23.7543   14.7401 H   0  0  0  0  0  0  0  0  0  0  0  0
   24.4166   23.3339   13.0014 H   0  0  0  0  0  0  0  0  0  0  0  0
   27.0943   24.1021   14.2411 H   0  0  0  0  0  0  0  0  0  0  0  0
   26.5749   22.4650   13.6682 H   0  0  0  0  0  0  0  0  0  0  0  0
   26.3361   23.3451   11.3783 H   0  0  0  0  0  0  0  0  0  0  0  0
  2  1  2  0
  3  2  1  0
  4  3  1  6
  5  4  1  0
  6  5  1  0
  7  6  1  0
  8  7  1  0
  9  4  1  0
  9  8  1  0
 10  8  1  0
 11 10  1  0
 12  4  1  0
 12 11  1  0
 13 11  1  0
 13  6  1  0
 14  2  1  0
 15 14  1  0
 16 15  1  0
 17 16  1  0
 18 17  1  0
 19 18  1  0
 19 14  1  0
 20 19  1  0
 21 20  2  0
 22 20  1  0
  3 23  1  0
  5 24  1  0
  5 25  1  0
  6 26  1  6
  7 27  1  0
  7 28  1  0
  8 29  1  1
  9 30  1  0
  9 31  1  0
 10 32  1  0
 10 33  1  0
 11 34  1  1
 12 35  1  0
 12 36  1  0
 13 37  1  0
 13 38  1  0
 14 39  1  6
 15 40  1  0
 15 41  1  0
 16 42  1  0
 16 43  1  0
 17 44  1  0
 17 45  1  0
 18 46  1  0
 18 47  1  0
 19 48  1  6
M  CHG  1  22  -1
M  END
$$$$
=
     RDKit          3D

 34 35  0  0  0  0  0  0  0  0999 V2000
   17.2710   16.6370    5.5650 O   0  0  0  0  0  0  0  0  0  0  0  0
   17.2280   15.9080    4.5750 C   0  0  0  0  0  0  0  0  0  0  0  0
   16.0940   15.1680    4.2460 N   0  0  0  0  0  0  0  0  0  0  0  0
   15.0310   15.0790    5.2390 C   0  0  0  0  0  0  0  0  0  0  0  0
   13.7020   14.6700    4.6150 C   0  0  0  0  0  0  0  0  0  0  0  0
   13.7970   13.3300    3.8850 C   0  0  0  0  0  0  0  0  0  0  0  0
   15.2050   13.0270    3.3710 C   0  0  0  0  0  0  0  0  0  0  0  0
   15.9940   14.2990    3.0740 C   0  0  0  0  0  0  0  0  0  0  0  0
   18.3470   15.9350    3.5860 C   0  0  2  0  0  0  0  0  0  0  0  0
   19.7970   15.6110    3.9290 C   0  0  1  0  0  0  0  0  0  0  0  0
   19.4020   17.0390    3.5640 C   0  0  0  0  0  0  0  0  0  0  0  0
   19.8390   17.5500    2.2140 C   0  0  0  0  0  0  0  0  0  0  0  0
   19.4240   18.1070    4.6330 C   0  0  0  0  0  0  0  0  0  0  0  0
   20.2140   15.2670    5.3010 C   0  0  0  0  0  0  0  0  0  0  0  0
   19.5630   14.3600    5.9060 O   0  0  0  0  0  0  0  0  0  0  0  0
   21.2500   15.8420    5.7590 O   0  0  0  0  0  1  0  0  0  0  0  0
   15.3131   14.3322    5.9958 H   0  0  0  0  0  0  0  0  0  0  0  0
   14.9032   16.0736    5.6911 H   0  0  0  0  0  0  0  0  0  0  0  0
   12.9471   14.5875    5.4108 H   0  0  0  0  0  0  0  0  0  0  0  0
   13.4234   15.4378    3.8782 H   0  0  0  0  0  0  0  0  0  0  0  0
   13.4980   12.5309    4.5792 H   0  0  0  0  0  0  0  0  0  0  0  0
   13.1325   13.3846    3.0101 H   0  0  0  0  0  0  0  0  0  0  0  0
   15.7435   12.4456    4.1338 H   0  0  0  0  0  0  0  0  0  0  0  0
   15.1085   12.4615    2.4325 H   0  0  0  0  0  0  0  0  0  0  0  0
   17.0079   14.0206    2.7508 H   0  0  0  0  0  0  0  0  0  0  0  0
   15.4627   14.8520    2.2854 H   0  0  0  0  0  0  0  0  0  0  0  0
   17.6153   15.5314    2.8706 H   0  0  0  0  0  0  0  0  0  0  0  0
   20.5341   14.8835    3.5583 H   0  0  0  0  0  0  0  0  0  0  0  0
   20.5486   18.3798    2.3481 H   0  0  0  0  0  0  0  0  0  0  0  0
   20.3262   16.7377    1.6546 H   0  0  0  0  0  0  0  0  0  0  0  0
   18.9610   17.9052    1.6546 H   0  0  0  0  0  0  0  0  0  0  0  0
   19.4142   17.6327    5.6254 H   0  0  0  0  0  0  0  0  0  0  0  0
   20.3348   18.7143    4.5258 H   0  0  0  0  0  0  0  0  0  0  0  0
   18.5389   18.7513    4.5258 H   0  0  0  0  0  0  0  0  0  0  0  0
  2  1  2  0
  3  2  1  0
  4  3  1  0
  5  4  1  0
  6  5  1  0
  7  6  1  0
  8  7  1  0
  8  3  1  0
  9  2  1  0
 10  9  1  0
 11 10  1  0
 11  9  1  0
 12 11  1  0
 13 11  1  0
 14 10  1  0
 15 14  2  0
 16 14  1  0
  4 17  1  0
  4 18  1  0
  5 19  1  0
  5 20  1  0
  6 21  1  0
  6 22  1  0
  7 23  1  0
  7 24  1  0
  8 25  1  0
  8 26  1  0
  9 27  1  6
 10 28  1  6
 12 29  1  0
 12 30  1  0
 12 31  1  0
 13 32  1  0
 13 33  1  0
 13 34  1  0
M  CHG  1  16  -1
M  END
$$$$
=
     RDKit          3D

 16 16  0  0  0  0  0  0  0  0999 V2000
   19.4200   15.1500    4.7280 C   0  0  0  0  0  0  0  0  0  0  0  0
   19.6620   14.5040    5.9270 N   0  0  0  0  0  0  0  0  0  0  0  0
   20.6910   14.9960    6.6480 C   0  0  0  0  0  0  0  0  0  0  0  0
   21.4520   16.0720    6.2290 C   0  0  0  0  0  0  0  0  0  0  0  0
   21.2050   16.7230    5.0770 N   0  0  0  0  0  0  0  0  0  0  0  0
   20.1530   16.2520    4.3100 C   0  0  0  0  0  0  0  0  0  0  0  0
   18.7970   13.5450    3.0340 N   0  0  0  0  0  0  0  0  0  0  0  0
   18.3430   14.5060    3.9090 C   0  0  0  0  0  0  0  0  0  0  0  0
   17.1700   14.8500    3.8890 O   0  0  0  0  0  0  0  0  0  0  0  0
   19.7090   17.0160    3.0880 C   0  0  0  0  0  0  0  0  0  0  0  0
   19.2520   18.1870    3.2960 O   0  0  0  0  0  0  0  0  0  0  0  0
   19.8810   16.4620    1.9560 O   0  0  0  0  0  1  0  0  0  0  0  0
   20.9349   14.5211    7.6098 H   0  0  0  0  0  0  0  0  0  0  0  0
   22.2886   16.4077    6.8593 H   0  0  0  0  0  0  0  0  0  0  0  0
   18.1314   13.0453    2.4272 H   0  0  0  0  0  0  0  0  0  0  0  0
   19.8022   13.3257    2.9862 H   0  0  0  0  0  0  0  0  0  0  0  0
  2  1  2  0
  3  2  1  0
  4  3  2  0
  5  4  1  0
  6  1  1  0
  6  5  2  0
  8  7  1  0
  8  1  1  0
  9  8  2  0
 10  6  1  0
 11 10  2  0
 12 10  1  0
  3 13  1  0
  4 14  1  0
  7 15  1  0
  7 16  1  0
M  CHG  1  12  -1
M  END
$$$$
=
     RDKit          3D

 43 44  0  0  0  0  0  0  0  0999 V2000
   17.2080   14.6800    4.1190 N   0  0  0  0  0  0  0  0  0  0  0  0
   18.3900   15.3460    3.8580 C   0  0  0  0  0  0  0  0  0  0  0  0
   19.0490   15.1280    2.8460 O   0  0  0  0  0  0  0  0  0  0  0  0
   18.7870   16.3170    4.9730 C   0  0  1  0  0  0  0  0  0  0  0  0
   18.6650   15.6340    6.3460 C   0  0  0  0  0  0  0  0  0  0  0  0
   19.7900   14.6390    6.6060 C   0  0  0  0  0  0  0  0  0  0  0  0
   21.1550   15.3020    6.4770 C   0  0  0  0  0  0  0  0  0  0  0  0
   21.3300   15.9860    5.1240 C   0  0  0  0  0  0  0  0  0  0  0  0
   20.1830   16.9330    4.7480 C   0  0  2  0  0  0  0  0  0  0  0  0
   20.1960   18.3030    5.4580 C   0  0  0  0  0  0  0  0  0  0  0  0
   21.3500   18.7400    5.7410 O   0  0  0  0  0  0  0  0  0  0  0  0
   19.0750   18.8360    5.6810 O   0  0  0  0  0  1  0  0  0  0  0  0
   16.6390   13.7900    3.1410 C   0  0  0  0  0  0  0  0  0  0  0  0
   13.1230   13.6730    4.1520 N   0  0  0  0  0  0  0  0  0  0  0  0
   13.2820   12.3680    3.8580 N   0  0  0  0  0  0  0  0  0  0  0  0
   14.5520   12.2850    3.4610 C   0  0  0  0  0  0  0  0  0  0  0  0
   15.2240   13.5270    3.5090 C   0  0  0  0  0  0  0  0  0  0  0  0
   14.2650   14.4140    3.9770 C   0  0  0  0  0  0  0  0  0  0  0  0
   14.3470   15.8730    4.2450 C   0  0  0  0  0  0  0  0  0  0  0  0
   10.7220   13.7890    3.6090 C   0  0  0  0  0  0  0  0  0  0  0  0
   11.8210   14.1340    4.5980 C   0  0  0  0  0  0  0  0  0  0  0  0
   16.7302   14.8214    5.0204 H   0  0  0  0  0  0  0  0  0  0  0  0
   18.0824   17.1614    4.9502 H   0  0  0  0  0  0  0  0  0  0  0  0
   18.6905   16.4072    7.1280 H   0  0  0  0  0  0  0  0  0  0  0  0
   17.7168   15.0766    6.3585 H   0  0  0  0  0  0  0  0  0  0  0  0
   19.6827   14.2344    7.6233 H   0  0  0  0  0  0  0  0  0  0  0  0
   19.7223   13.8348    5.8586 H   0  0  0  0  0  0  0  0  0  0  0  0
   21.2614   16.0545    7.2723 H   0  0  0  0  0  0  0  0  0  0  0  0
   21.9235   14.5200    6.5655 H   0  0  0  0  0  0  0  0  0  0  0  0
   22.2637   16.5670    5.1488 H   0  0  0  0  0  0  0  0  0  0  0  0
   21.3454   15.1895    4.3655 H   0  0  0  0  0  0  0  0  0  0  0  0
   20.3707   17.0952    3.6763 H   0  0  0  0  0  0  0  0  0  0  0  0
   16.6830   14.2558    2.1455 H   0  0  0  0  0  0  0  0  0  0  0  0
   17.2036   12.8463    3.1169 H   0  0  0  0  0  0  0  0  0  0  0  0
   15.0264   11.3490    3.1311 H   0  0  0  0  0  0  0  0  0  0  0  0
   14.3567   16.0463    5.3312 H   0  0  0  0  0  0  0  0  0  0  0  0
   15.2692   16.2761    3.8011 H   0  0  0  0  0  0  0  0  0  0  0  0
   13.4758   16.3769    3.8011 H   0  0  0  0  0  0  0  0  0  0  0  0
    9.8120   13.5033    4.1570 H   0  0  0  0  0  0  0  0  0  0  0  0
   10.5099   14.6638    2.9767 H   0  0  0  0  0  0  0  0  0  0  0  0
   11.0479   12.9499    2.9767 H   0  0  0  0  0  0  0  0  0  0  0  0
   11.8554   15.2264    4.7228 H   0  0  0  0  0  0  0  0  0  0  0  0
   11.5911   13.6301    5.5484 H   0  0  0  0  0  0  0  0  0  0  0  0
  2  1  1  0
  3  2  2  0
  4  2  1  0
  5  4  1  0
  6  5  1  0
  7  6  1  0
  8  7  1  0
  9  8  1  0
  9  4  1  0
 10  9  1  0
 11 10  2  0
 12 10  1  0
 13  1  1  0
 15 14  1  0
 16 15  2  0
 17 16  1  0
 17 13  1  0
 18 17  2  0
 18 14  1  0
 19 18  1  0
 21 20  1  0
 21 14  1  0
  1 22  1  0
  4 23  1  1
  5 24  1  0
  5 25  1  0
  6 26  1  0
  6 27  1  0
  7 28  1  0
  7 29  1  0
  8 30  1  0
  8 31  1  0
  9 32  1  6
 13 33  1  0
 13 34  1  0
 16 35  1  0
 19 36  1  0
 19 37  1  0
 19 38  1  0
 20 39  1  0
 20 40  1  0
 20 41  1  0
 21 42  1  0
 21 43  1  0
M  CHG  1  12  -1
M  END
$$$$
=
     RDKit          3D

 25 25  0  0  0  0  0  0  0  0999 V2000
   19.9220   16.5390    5.7030 C   0  0  2  0  0  0  0  0  0  0  0  0
   18.5660   16.0390    5.2370 C   0  0  0  0  0  0  0  0  0  0  0  0
   17.3950   16.5870    5.7760 C   0  0  0  0  0  0  0  0  0  0  0  0
   16.1700   16.1510    5.2940 C   0  0  0  0  0  0  0  0  0  0  0  0
   16.0330   15.2310    4.3180 N   0  0  0  0  0  0  0  0  0  0  0  0
   17.1680   14.6910    3.8270 C   0  0  0  0  0  0  0  0  0  0  0  0
   18.4380   15.0610    4.2410 C   0  0  0  0  0  0  0  0  0  0  0  0
   20.5860   17.5500    4.7060 N   0  0  0  0  0  4  0  0  0  0  0  0
   21.3080   18.6270    5.4500 C   0  0  0  0  0  0  0  0  0  0  0  0
   19.7500   18.0470    3.5910 C   0  0  0  0  0  0  0  0  0  0  0  0
   20.6930   14.6050    6.9380 O   0  0  0  0  0  1  0  0  0  0  0  0
   20.8890   15.3130    5.9230 C   0  0  0  0  0  0  0  0  0  0  0  0
   21.8120   15.3060    5.0420 O   0  0  0  0  0  0  0  0  0  0  0  0
   19.7532   17.0807    6.6454 H   0  0  0  0  0  0  0  0  0  0  0  0
   17.4462   17.3494    6.5673 H   0  0  0  0  0  0  0  0  0  0  0  0
   15.2575   16.5805    5.7333 H   0  0  0  0  0  0  0  0  0  0  0  0
   17.0804   13.9130    3.0543 H   0  0  0  0  0  0  0  0  0  0  0  0
   19.3297   14.5954    3.7958 H   0  0  0  0  0  0  0  0  0  0  0  0
   21.2762   16.9885    4.1871 H   0  0  0  0  0  0  0  0  0  0  0  0
   21.1977   18.4624    6.5320 H   0  0  0  0  0  0  0  0  0  0  0  0
   22.3748   18.6054    5.1827 H   0  0  0  0  0  0  0  0  0  0  0  0
   20.8828   19.6056    5.1827 H   0  0  0  0  0  0  0  0  0  0  0  0
   18.8710   18.5695    3.9964 H   0  0  0  0  0  0  0  0  0  0  0  0
   20.3377   18.7425    2.9738 H   0  0  0  0  0  0  0  0  0  0  0  0
   19.4198   17.1985    2.9738 H   0  0  0  0  0  0  0  0  0  0  0  0
  2  1  1  0
  3  2  2  0
  4  3  1  0
  5  4  2  0
  6  5  1  0
  7  6  2  0
  7  2  1  0
  8  1  1  0
  9  8  1  0
 10  8  1  0
 12 11  1  0
 12  1  1  0
 13 12  2  0
  1 14  1  1
  3 15  1  0
  4 16  1  0
  6 17  1  0
  7 18  1  0
  8 19  1  0
  9 20  1  0
  9 21  1  0
  9 22  1  0
 10 23  1  0
 10 24  1  0
 10 25  1  0
M  CHG  2   8   1  11  -1
M  END
$$$$
=
     RDKit          3D

 26 26  0  0  0  0  0  0  0  0999 V2000
   23.5620   18.6350    5.1430 C   0  0  0  0  0  0  0  0  0  0  0  0
   22.1210   18.1360    5.2290 C   0  0  1  0  0  0  0  0  0  0  0  0
   21.4810   18.0410    3.8400 C   0  0  0  0  0  0  0  0  0  0  0  0
   19.9900   17.6730    3.9260 C   0  0  0  0  0  0  0  0  0  0  0  0
   19.6520   16.8120    5.1510 C   0  0  0  0  0  0  0  0  0  0  0  0
   20.8320   15.9340    5.5820 C   0  0  1  0  0  0  0  0  0  0  0  0
   22.0520   16.7890    5.9680 C   0  0  0  0  0  0  0  0  0  0  0  0
   20.4400   14.9990    6.7240 C   0  0  0  0  0  0  0  0  0  0  0  0
   19.6210   17.0500    2.5620 C   0  0  0  0  0  0  0  0  0  0  0  0
   19.2680   15.8350    2.6190 O   0  0  0  0  0  0  0  0  0  0  0  0
   19.7090   17.8070    1.5570 O   0  0  0  0  0  1  0  0  0  0  0  0
   23.9631   18.7739    6.1578 H   0  0  0  0  0  0  0  0  0  0  0  0
   24.1742   17.8965    4.6046 H   0  0  0  0  0  0  0  0  0  0  0  0
   23.5864   19.5939    4.6046 H   0  0  0  0  0  0  0  0  0  0  0  0
   21.5429   18.8706    5.8087 H   0  0  0  0  0  0  0  0  0  0  0  0
   21.5800   19.0129    3.3344 H   0  0  0  0  0  0  0  0  0  0  0  0
   21.9981   17.2500    3.2770 H   0  0  0  0  0  0  0  0  0  0  0  0
   19.3649   18.5614    4.0989 H   0  0  0  0  0  0  0  0  0  0  0  0
   19.3793   17.4744    5.9858 H   0  0  0  0  0  0  0  0  0  0  0  0
   18.8178   16.1486    4.8790 H   0  0  0  0  0  0  0  0  0  0  0  0
   21.1134   15.3130    4.7188 H   0  0  0  0  0  0  0  0  0  0  0  0
   22.0089   16.9877    7.0491 H   0  0  0  0  0  0  0  0  0  0  0  0
   22.9480   16.2187    5.6817 H   0  0  0  0  0  0  0  0  0  0  0  0
   20.6457   15.4897    7.6867 H   0  0  0  0  0  0  0  0  0  0  0  0
   19.3677   14.7641    6.6539 H   0  0  0  0  0  0  0  0  0  0  0  0
   21.0242   14.0696    6.6539 H   0  0  0  0  0  0  0  0  0  0  0  0
  2  1  1  0
  3  2  1  0
  4  3  1  0
  5  4  1  0
  6  5  1  0
  7  6  1  0
  7  2  1  0
  8  6  1  0
  9  4  1  0
 10  9  2  0
 11  9  1  0
  1 12  1  0
  1 13  1  0
  1 14  1  0
  2 15  1  1
  3 16  1  0
  3 17  1  0
  4 18  1  0
  5 19  1  0
  5 20  1  0
  6 21  1  6
  7 22  1  0
  7 23  1  0
  8 24  1  0
  8 25  1  0
  8 26  1  0
M  CHG  1  11  -1
M  END
$$$$
=
     RDKit          3D

 38 40  0  0  0  0  0  0  0  0999 V2000
   24.3570   26.5540   13.4070 C   0  0  1  0  0  0  0  0  0  0  0  0
   23.2900   27.1120   14.3690 C   0  0  0  0  0  0  0  0  0  0  0  0
   23.4010   26.4980   15.7670 C   0  0  0  0  0  0  0  0  0  0  0  0
   24.7890   26.7790   16.3230 C   0  0  0  0  0  0  0  0  0  0  0  0
   24.9160   27.2040   17.4720 O   0  0  0  0  0  0  0  0  0  0  0  0
   25.8210   26.5760   15.3850 N   0  0  0  0  0  0  0  0  0  0  0  0
   25.4500   25.8040   14.1670 C   0  0  2  0  0  0  0  0  0  0  0  0
   27.0250   27.3420   15.4980 C   0  0  0  0  0  0  0  0  0  0  0  0
   28.0980   26.8720   16.2660 C   0  0  0  0  0  0  0  0  0  0  0  0
   29.2820   27.6100   16.3880 C   0  0  0  0  0  0  0  0  0  0  0  0
   29.4200   28.8400   15.7420 C   0  0  0  0  0  0  0  0  0  0  0  0
   28.3450   29.3320   14.9970 C   0  0  0  0  0  0  0  0  0  0  0  0
   27.1640   28.5890   14.8790 C   0  0  0  0  0  0  0  0  0  0  0  0
   30.6730   29.6470   15.8970 C   0  0  0  0  0  0  0  0  0  0  0  0
   26.6370   25.3070   13.3480 C   0  0  0  0  0  0  0  0  0  0  0  0
   27.1960   25.8240   12.1900 C   0  0  0  0  0  0  0  0  0  0  0  0
   28.2910   25.0520   11.7060 C   0  0  0  0  0  0  0  0  0  0  0  0
   28.5290   23.9500   12.4920 C   0  0  0  0  0  0  0  0  0  0  0  0
   27.4270   23.8360   13.7920 S   0  0  0  0  0  0  0  0  0  0  0  0
   23.2560   24.4940   13.0090 O   0  0  0  0  0  1  0  0  0  0  0  0
   23.6620   25.5630   12.4740 C   0  0  0  0  0  0  0  0  0  0  0  0
   23.5580   25.9550   11.2780 O   0  0  0  0  0  0  0  0  0  0  0  0
   24.8201   27.3877   12.8588 H   0  0  0  0  0  0  0  0  0  0  0  0
   23.4185   28.2016   14.4484 H   0  0  0  0  0  0  0  0  0  0  0  0
   22.2999   26.8566   13.9634 H   0  0  0  0  0  0  0  0  0  0  0  0
   22.6422   26.9439   16.4269 H   0  0  0  0  0  0  0  0  0  0  0  0
   23.2366   25.4119   15.7098 H   0  0  0  0  0  0  0  0  0  0  0  0
   25.0110   24.8424   14.4713 H   0  0  0  0  0  0  0  0  0  0  0  0
   28.0090   25.9051   16.7830 H   0  0  0  0  0  0  0  0  0  0  0  0
   30.1095   27.2176   16.9974 H   0  0  0  0  0  0  0  0  0  0  0  0
   28.4271   30.3098   14.4998 H   0  0  0  0  0  0  0  0  0  0  0  0
   26.3291   28.9937   14.2880 H   0  0  0  0  0  0  0  0  0  0  0  0
   30.8894   29.7864   16.9665 H   0  0  0  0  0  0  0  0  0  0  0  0
   31.5110   29.1184   15.4192 H   0  0  0  0  0  0  0  0  0  0  0  0
   30.5384   30.6286   15.4192 H   0  0  0  0  0  0  0  0  0  0  0  0
   26.8316   26.7365   11.6955 H   0  0  0  0  0  0  0  0  0  0  0  0
   28.8761   25.3074   10.8102 H   0  0  0  0  0  0  0  0  0  0  0  0
   29.3355   23.2256   12.3055 H   0  0  0  0  0  0  0  0  0  0  0  0
  2  1  1  0
  3  2  1  0
  4  3  1  0
  5  4  2  0
  6  4  1  0
  7  6  1  0
  7  1  1  0
  8  6  1  0
  9  8  2  0
 10  9  1  0
 11 10  2  0
 12 11  1  0
 13  8  1  0
 13 12  2  0
 14 11  1  0
 15  7  1  0
 16 15  2  0
 17 16  1  0
 18 17  2  0
 19 15  1  0
 19 18  1  0
 21 20  1  0
 21  1  1  0
 22 21  2  0
  1 23  1  6
  2 24  1  0
  2 25  1  0
  3 26  1  0
  3 27  1  0
  7 28  1  1
  9 29  1  0
 10 30  1  0
 12 31  1  0
 13 32  1  0
 14 33  1  0
 14 34  1  0
 14 35  1  0
 16 36  1  0
 17 37  1  0
 18 38  1  0
M  CHG  1  20  -1
M  END
$$$$
=
     RDKit          3D

 31 31  0  0  0  0  0  0  0  0999 V2000
   17.3060   16.0220    4.4020 N   0  0  0  0  0  0  0  0  0  0  0  0
   16.2220   15.5100    5.0720 C   0  0  0  0  0  0  0  0  0  0  0  0
   15.9030   15.7660    6.2280 O   0  0  0  0  0  0  0  0  0  0  0  0
   15.3560   14.5980    4.2810 C   0  0  0  0  0  0  0  0  0  0  0  0
   15.9050   13.6240    3.4340 C   0  0  0  0  0  0  0  0  0  0  0  0
   15.0720   12.7650    2.7150 C   0  0  0  0  0  0  0  0  0  0  0  0
   13.6880   12.8650    2.8480 C   0  0  0  0  0  0  0  0  0  0  0  0
   13.1420   13.8270    3.7120 C   0  0  0  0  0  0  0  0  0  0  0  0
   13.9680   14.6930    4.4360 C   0  0  0  0  0  0  0  0  0  0  0  0
   11.6840   13.9190    3.8570 N   0  0  0  0  0  4  0  0  0  0  0  0
   10.9930   13.0440    3.3090 O   0  0  0  0  0  0  0  0  0  0  0  0
   11.2180   14.8600    4.5140 O   0  0  0  0  0  1  0  0  0  0  0  0
   18.5830   16.3290    5.1050 C   0  0  1  0  0  0  0  0  0  0  0  0
   19.5700   15.1130    4.9040 C   0  0  0  0  0  0  0  0  0  0  0  0
   19.9730   14.5920    5.9990 O   0  0  0  0  0  0  0  0  0  0  0  0
   19.9180   14.8420    3.7230 O   0  0  0  0  0  1  0  0  0  0  0  0
   19.1690   17.6130    4.4950 C   0  0  0  0  0  0  0  0  0  0  0  0
   20.0520   18.4130    5.4550 C   0  0  0  0  0  0  0  0  0  0  0  0
   22.0890   18.9280    4.3700 O   0  0  0  0  0  1  0  0  0  0  0  0
   21.5640   18.2120    5.2740 C   0  0  0  0  0  0  0  0  0  0  0  0
   22.1290   17.3650    6.0230 O   0  0  0  0  0  0  0  0  0  0  0  0
   17.2344   16.1979    3.3897 H   0  0  0  0  0  0  0  0  0  0  0  0
   16.9971   13.5366    3.3359 H   0  0  0  0  0  0  0  0  0  0  0  0
   15.5074   12.0098    2.0440 H   0  0  0  0  0  0  0  0  0  0  0  0
   13.0276   12.1939    2.2792 H   0  0  0  0  0  0  0  0  0  0  0  0
   13.5329   15.4385    5.1178 H   0  0  0  0  0  0  0  0  0  0  0  0
   18.4218   16.4817    6.1824 H   0  0  0  0  0  0  0  0  0  0  0  0
   19.7740   17.3348    3.6194 H   0  0  0  0  0  0  0  0  0  0  0  0
   18.3172   18.2584    4.2344 H   0  0  0  0  0  0  0  0  0  0  0  0
   19.8310   19.4809    5.3108 H   0  0  0  0  0  0  0  0  0  0  0  0
   19.8142   18.0476    6.4649 H   0  0  0  0  0  0  0  0  0  0  0  0
  2  1  1  0
  3  2  2  0
  4  2  1  0
  5  4  2  0
  6  5  1  0
  7  6  2  0
  8  7  1  0
  9  8  2  0
  9  4  1  0
 10  8  1  0
 11 10  2  0
 12 10  1  0
 13  1  1  0
 14 13  1  0
 15 14  2  0
 16 14  1  0
 17 13  1  0
 18 17  1  0
 20 18  1  0
 20 19  1  0
 21 20  2  0
  1 22  1  0
  5 23  1  0
  6 24  1  0
  7 25  1  0
  9 26  1  0
 13 27  1  1
 17 28  1  0
 17 29  1  0
 18 30  1  0
 18 31  1  0
M  CHG  4  10   1  12  -1  16  -1  19  -1
M  END
$$$$
=
     RDKit          3D

 29 30  0  0  0  0  0  0  0  0999 V2000
   19.6060   16.6880    2.3300 O   0  0  0  0  0  0  0  0  0  0  0  0
   19.6060   16.7930    3.5540 C   0  0  0  0  0  0  0  0  0  0  0  0
   20.4010   17.6640    4.2530 N   0  0  0  0  0  0  0  0  0  0  0  0
   21.6870   18.1670    3.7870 C   0  0  0  0  0  0  0  0  0  0  0  0
   22.0320   18.4100    5.2620 C   0  0  0  0  0  0  0  0  0  0  0  0
   20.8940   17.4430    5.6370 C   0  0  2  0  0  0  0  0  0  0  0  0
   21.3560   16.0350    6.0340 C   0  0  0  0  0  0  0  0  0  0  0  0
   21.1750   15.6900    7.2440 O   0  0  0  0  0  0  0  0  0  0  0  0
   21.9050   15.3120    5.1420 O   0  0  0  0  0  1  0  0  0  0  0  0
   18.7720   16.1120    4.3800 O   0  0  0  0  0  0  0  0  0  0  0  0
   18.4360   14.8100    3.9060 C   0  0  0  0  0  0  0  0  0  0  0  0
   16.9340   14.6420    3.9280 C   0  0  0  0  0  0  0  0  0  0  0  0
   16.3170   13.6100    3.2060 C   0  0  0  0  0  0  0  0  0  0  0  0
   14.9310   13.4440    3.2540 C   0  0  0  0  0  0  0  0  0  0  0  0
   14.1490   14.3020    4.0260 C   0  0  0  0  0  0  0  0  0  0  0  0
   14.7530   15.3240    4.7540 C   0  0  0  0  0  0  0  0  0  0  0  0
   16.1380   15.4910    4.7100 C   0  0  0  0  0  0  0  0  0  0  0  0
   22.3186   17.4209    3.2826 H   0  0  0  0  0  0  0  0  0  0  0  0
   21.7636   18.9622    3.0308 H   0  0  0  0  0  0  0  0  0  0  0  0
   23.0355   18.0700    5.5577 H   0  0  0  0  0  0  0  0  0  0  0  0
   22.0800   19.4268    5.6788 H   0  0  0  0  0  0  0  0  0  0  0  0
   20.2261   17.5759    6.5009 H   0  0  0  0  0  0  0  0  0  0  0  0
   18.8043   14.6874    2.8768 H   0  0  0  0  0  0  0  0  0  0  0  0
   18.9009   14.0513    4.5527 H   0  0  0  0  0  0  0  0  0  0  0  0
   16.9285   12.9270    2.5981 H   0  0  0  0  0  0  0  0  0  0  0  0
   14.4553   12.6343    2.6813 H   0  0  0  0  0  0  0  0  0  0  0  0
   13.0572   14.1720    4.0600 H   0  0  0  0  0  0  0  0  0  0  0  0
   14.1375   16.0008    5.3648 H   0  0  0  0  0  0  0  0  0  0  0  0
   16.6091   16.2955    5.2938 H   0  0  0  0  0  0  0  0  0  0  0  0
  2  1  2  0
  3  2  1  0
  4  3  1  0
  5  4  1  0
  6  3  1  0
  6  5  1  0
  7  6  1  0
  8  7  2  0
  9  7  1  0
 10  2  1  0
 11 10  1  0
 12 11  1  0
 13 12  2  0
 14 13  1  0
 15 14  2  0
 16 15  1  0
 17 16  2  0
 17 12  1  0
  4 18  1  0
  4 19  1  0
  5 20  1  0
  5 21  1  0
  6 22  1  1
 11 23  1  0
 11 24  1  0
 13 25  1  0
 14 26  1  0
 15 27  1  0
 16 28  1  0
 17 29  1  0
M  CHG  1   9  -1
M  END
$$$$
=
     RDKit          3D

 78 82  0  0  0  0  0  0  0  0999 V2000
   28.8570   24.9750   14.3120 C   0  0  2  0  0  0  0  0  0  0  0  0
   28.3790   24.0280   13.1790 C   0  0  0  0  0  0  0  0  0  0  0  0
   26.8670   23.7850   13.1770 C   0  0  0  0  0  0  0  0  0  0  0  0
   26.0220   25.0890   13.1930 C   0  0  2  0  0  0  0  0  0  0  0  0
   26.4000   25.9260   14.4280 C   0  0  0  0  0  0  0  0  0  0  0  0
   25.5090   26.8090   14.9290 C   0  0  0  0  0  0  0  0  0  0  0  0
   24.1020   27.0220   14.4480 C   0  0  0  0  0  0  0  0  0  0  0  0
   23.6500   26.1390   13.2630 C   0  0  1  0  0  0  0  0  0  0  0  0
   24.4250   24.7690   13.2210 C   0  0  2  0  0  0  0  0  0  0  0  0
   24.0980   23.8830   14.4590 C   0  0  0  0  0  0  0  0  0  0  0  0
   23.9790   23.9870   11.9540 C   0  0  0  0  0  0  0  0  0  0  0  0
   22.4630   23.8860   11.7760 C   0  0  0  0  0  0  0  0  0  0  0  0
   21.7960   25.2720   11.7190 C   0  0  2  0  0  0  0  0  0  0  0  0
   22.0790   26.1110   13.0160 C   0  0  1  0  0  0  0  0  0  0  0  0
   21.2730   25.5850   14.2280 C   0  0  0  0  0  0  0  0  0  0  0  0
   21.6050   27.5850   12.7680 C   0  0  0  0  0  0  0  0  0  0  0  0
   20.4570   27.7560   11.7790 C   0  0  0  0  0  0  0  0  0  0  0  0
   19.5910   26.5280   11.6720 C   0  0  0  0  0  0  0  0  0  0  0  0
   18.3680   26.6130   11.8090 O   0  0  0  0  0  0  0  0  0  0  0  0
   20.2880   25.2190   11.2820 C   0  0  0  0  0  0  0  0  0  0  0  0
   20.1990   25.1180    9.7440 C   0  0  0  0  0  0  0  0  0  0  0  0
   19.4960   24.0340   11.8670 C   0  0  0  0  0  0  0  0  0  0  0  0
   27.6940   25.5320   15.1890 C   0  0  2  0  0  0  0  0  0  0  0  0
   28.2550   26.5540   16.2220 C   0  0  0  0  0  0  0  0  0  0  0  0
   29.1310   27.6920   15.6490 C   0  0  0  0  0  0  0  0  0  0  0  0
   30.2480   27.0890   14.7790 C   0  0  0  0  0  0  0  0  0  0  0  0
   29.7230   26.1140   13.7240 C   0  0  0  0  0  0  0  0  0  0  0  0
   28.3090   28.7100   14.8400 C   0  0  0  0  0  0  0  0  0  0  0  0
   29.7790   28.4530   16.8250 C   0  0  0  0  0  0  0  0  0  0  0  0
   26.4120   25.9230   11.9320 C   0  0  0  0  0  0  0  0  0  0  0  0
   30.5580   23.2710   14.4930 O   0  0  0  0  0  1  0  0  0  0  0  0
   29.7670   24.0040   15.1540 C   0  0  0  0  0  0  0  0  0  0  0  0
   29.5900   24.0220   16.4060 O   0  0  0  0  0  0  0  0  0  0  0  0
   28.6606   24.4724   12.2130 H   0  0  0  0  0  0  0  0  0  0  0  0
   28.8610   23.0540   13.3493 H   0  0  0  0  0  0  0  0  0  0  0  0
   26.6085   23.2154   12.2722 H   0  0  0  0  0  0  0  0  0  0  0  0
   26.6293   23.2380   14.1012 H   0  0  0  0  0  0  0  0  0  0  0  0
   25.8463   27.4322   15.7704 H   0  0  0  0  0  0  0  0  0  0  0  0
   23.4244   26.8252   15.2919 H   0  0  0  0  0  0  0  0  0  0  0  0
   24.0693   28.0567   14.0761 H   0  0  0  0  0  0  0  0  0  0  0  0
   23.9713   26.6395   12.3376 H   0  0  0  0  0  0  0  0  0  0  0  0
   24.3065   24.4479   15.3795 H   0  0  0  0  0  0  0  0  0  0  0  0
   23.0357   23.5986   14.4360 H   0  0  0  0  0  0  0  0  0  0  0  0
   24.7208   22.9766   14.4360 H   0  0  0  0  0  0  0  0  0  0  0  0
   24.3961   24.4945   11.0717 H   0  0  0  0  0  0  0  0  0  0  0  0
   24.3509   22.9585   12.0722 H   0  0  0  0  0  0  0  0  0  0  0  0
   22.2502   23.3506   10.8389 H   0  0  0  0  0  0  0  0  0  0  0  0
   22.0540   23.3473   12.6435 H   0  0  0  0  0  0  0  0  0  0  0  0
   22.2792   25.8299   10.9033 H   0  0  0  0  0  0  0  0  0  0  0  0
   21.7622   25.9042   15.1601 H   0  0  0  0  0  0  0  0  0  0  0  0
   20.2511   25.9906   14.1927 H   0  0  0  0  0  0  0  0  0  0  0  0
   21.2328   24.4863   14.1927 H   0  0  0  0  0  0  0  0  0  0  0  0
   21.2837   28.0030   13.7334 H   0  0  0  0  0  0  0  0  0  0  0  0
   22.4651   28.1037   12.3195 H   0  0  0  0  0  0  0  0  0  0  0  0
   19.8320   28.5992   12.1083 H   0  0  0  0  0  0  0  0  0  0  0  0
   20.8980   27.9377   10.7878 H   0  0  0  0  0  0  0  0  0  0  0  0
   19.4948   24.3189    9.4692 H   0  0  0  0  0  0  0  0  0  0  0  0
   19.8455   26.0754    9.3335 H   0  0  0  0  0  0  0  0  0  0  0  0
   21.1932   24.8878    9.3335 H   0  0  0  0  0  0  0  0  0  0  0  0
   19.5263   24.0794   12.9656 H   0  0  0  0  0  0  0  0  0  0  0  0
   18.4514   24.0874   11.5265 H   0  0  0  0  0  0  0  0  0  0  0  0
   19.9448   23.0892   11.5265 H   0  0  0  0  0  0  0  0  0  0  0  0
   27.2833   24.6978   15.7768 H   0  0  0  0  0  0  0  0  0  0  0  0
   27.3992   27.0156   16.7363 H   0  0  0  0  0  0  0  0  0  0  0  0
   28.9189   25.9738   16.8797 H   0  0  0  0  0  0  0  0  0  0  0  0
   30.7751   27.9081   14.2679 H   0  0  0  0  0  0  0  0  0  0  0  0
   30.9159   26.5240   15.4459 H   0  0  0  0  0  0  0  0  0  0  0  0
   29.1136   26.6774   13.0021 H   0  0  0  0  0  0  0  0  0  0  0  0
   30.5993   25.6440   13.2537 H   0  0  0  0  0  0  0  0  0  0  0  0
   27.7704   29.3770   15.5293 H   0  0  0  0  0  0  0  0  0  0  0  0
   28.9832   29.3047   14.2061 H   0  0  0  0  0  0  0  0  0  0  0  0
   27.5856   28.1762   14.2061 H   0  0  0  0  0  0  0  0  0  0  0  0
   29.4206   28.0321   17.7760 H   0  0  0  0  0  0  0  0  0  0  0  0
   30.8729   28.3523   16.7686 H   0  0  0  0  0  0  0  0  0  0  0  0
   29.5053   29.5169   16.7686 H   0  0  0  0  0  0  0  0  0  0  0  0
   26.8584   26.8776   12.2474 H   0  0  0  0  0  0  0  0  0  0  0  0
   27.1398   25.3590   11.3301 H   0  0  0  0  0  0  0  0  0  0  0  0
   25.5126   26.1199   11.3301 H   0  0  0  0  0  0  0  0  0  0  0  0
  2  1  1  0
  3  2  1  0
  4  3  1  0
  5  4  1  0
  6  5  2  0
  7  6  1  0
  8  7  1  0
  9  8  1  0
  9  4  1  0
  9 10  1  1
 11  9  1  0
 12 11  1  0
 13 12  1  0
 14 13  1  0
 14  8  1  0
 14 15  1  1
 16 14  1  0
 17 16  1  0
 18 17  1  0
 19 18  2  0
 20 18  1  0
 20 13  1  0
 21 20  1  0
 22 20  1  0
 23  5  1  0
 23  1  1  0
 24 23  1  0
 25 24  1  0
 26 25  1  0
 27 26  1  0
 27  1  1  0
 28 25  1  0
 29 25  1  0
  4 30  1  6
 32 31  1  0
  1 32  1  1
 33 32  2  0
  2 34  1  0
  2 35  1  0
  3 36  1  0
  3 37  1  0
  6 38  1  0
  7 39  1  0
  7 40  1  0
  8 41  1  6
 10 42  1  0
 10 43  1  0
 10 44  1  0
 11 45  1  0
 11 46  1  0
 12 47  1  0
 12 48  1  0
 13 49  1  6
 15 50  1  0
 15 51  1  0
 15 52  1  0
 16 53  1  0
 16 54  1  0
 17 55  1  0
 17 56  1  0
 21 57  1  0
 21 58  1  0
 21 59  1  0
 22 60  1  0
 22 61  1  0
 22 62  1  0
 23 63  1  1
 24 64  1  0
 24 65  1  0
 26 66  1  0
 26 67  1  0
 27 68  1  0
 27 69  1  0
 28 70  1  0
 28 71  1  0
 28 72  1  0
 29 73  1  0
 29 74  1  0
 29 75  1  0
 30 76  1  0
 30 77  1  0
 30 78  1  0
M  CHG  1  31  -1
M  END
$$$$
=
     RDKit          3D

 33 33  0  0  0  0  0  0  0  0999 V2000
   17.3400   15.1150    4.2380 C   0  0  0  0  0  0  0  0  0  0  0  0
   16.8340   14.1810    3.3290 C   0  0  0  0  0  0  0  0  0  0  0  0
   15.4840   13.8180    3.3610 C   0  0  0  0  0  0  0  0  0  0  0  0
   14.6030   14.3800    4.2940 C   0  0  0  0  0  0  0  0  0  0  0  0
   15.1160   15.3260    5.1960 C   0  0  0  0  0  0  0  0  0  0  0  0
   16.4700   15.7020    5.1760 C   0  0  0  0  0  0  0  0  0  0  0  0
   16.9700   16.7200    6.1610 C   0  0  0  0  0  0  0  0  0  0  0  0
   13.1400   13.9800    4.3250 C   0  0  0  0  0  0  0  0  0  0  0  0
   12.2870   14.9150    4.4500 O   0  0  0  0  0  0  0  0  0  0  0  0
   12.8730   12.7410    4.2210 O   0  0  0  0  0  1  0  0  0  0  0  0
   18.6420   15.5400    4.2860 O   0  0  0  0  0  0  0  0  0  0  0  0
   19.1870   16.1980    3.1420 C   0  0  0  0  0  0  0  0  0  0  0  0
   19.4870   17.6630    3.4700 C   0  0  0  0  0  0  0  0  0  0  0  0
   21.8430   18.4700    4.0150 C   0  0  0  0  0  0  0  0  0  0  0  0
   20.5400   17.8910    4.5670 C   0  0  0  0  0  0  0  0  0  0  0  0
   20.0080   18.7610    5.7060 C   0  0  0  0  0  0  0  0  0  0  0  0
   17.5032   13.7281    2.5827 H   0  0  0  0  0  0  0  0  0  0  0  0
   15.1068   13.0775    2.6403 H   0  0  0  0  0  0  0  0  0  0  0  0
   14.4424   15.7835    5.9355 H   0  0  0  0  0  0  0  0  0  0  0  0
   16.7922   16.3581    7.1844 H   0  0  0  0  0  0  0  0  0  0  0  0
   18.0481   16.8777    6.0099 H   0  0  0  0  0  0  0  0  0  0  0  0
   16.4358   17.6696    6.0099 H   0  0  0  0  0  0  0  0  0  0  0  0
   20.1178   15.6945    2.8419 H   0  0  0  0  0  0  0  0  0  0  0  0
   18.4565   16.1556    2.3206 H   0  0  0  0  0  0  0  0  0  0  0  0
   19.8437   18.1504    2.5507 H   0  0  0  0  0  0  0  0  0  0  0  0
   18.5484   18.0849    3.8585 H   0  0  0  0  0  0  0  0  0  0  0  0
   22.4976   18.7609    4.8498 H   0  0  0  0  0  0  0  0  0  0  0  0
   22.3491   17.7121    3.3991 H   0  0  0  0  0  0  0  0  0  0  0  0
   21.6197   19.3536    3.3991 H   0  0  0  0  0  0  0  0  0  0  0  0
   20.7649   16.8955    4.9773 H   0  0  0  0  0  0  0  0  0  0  0  0
   20.2835   18.3105    6.6709 H   0  0  0  0  0  0  0  0  0  0  0  0
   20.4451   19.7678    5.6333 H   0  0  0  0  0  0  0  0  0  0  0  0
   18.9126   18.8307    5.6333 H   0  0  0  0  0  0  0  0  0  0  0  0
  2  1  2  0
  3  2  1  0
  4  3  2  0
  5  4  1  0
  6  5  2  0
  6  1  1  0
  7  6  1  0
  8  4  1  0
  9  8  2  0
 10  8  1  0
 11  1  1  0
 12 11  1  0
 13 12  1  0
 15 13  1  0
 15 14  1  0
 16 15  1  0
  2 17  1  0
  3 18  1  0
  5 19  1  0
  7 20  1  0
  7 21  1  0
  7 22  1  0
 12 23  1  0
 12 24  1  0
 13 25  1  0
 13 26  1  0
 14 27  1  0
 14 28  1  0
 14 29  1  0
 15 30  1  0
 16 31  1  0
 16 32  1  0
 16 33  1  0
M  CHG  1  10  -1
M  END
$$$$
=
     RDKit          3D

 35 36  0  0  0  0  0  0  0  0999 V2000
   28.2920   25.5980   14.5170 S   0  0  0  0  0  6  0  0  0  0  0  0
   28.0690   24.4790   15.4100 O   0  0  0  0  0  0  0  0  0  0  0  0
   29.3040   25.6420   13.4860 O   0  0  0  0  0  0  0  0  0  0  0  0
   30.4990   26.1910   16.9030 C   0  0  0  0  0  0  0  0  0  0  0  0
   29.0540   26.6930   16.8950 C   0  0  1  0  0  0  0  0  0  0  0  0
   28.8370   27.9070   17.8150 C   0  0  0  0  0  0  0  0  0  0  0  0
   28.8010   29.2520   17.0940 C   0  0  0  0  0  0  0  0  0  0  0  0
   29.6820   29.2350   15.8590 C   0  0  0  0  0  0  0  0  0  0  0  0
   29.2260   28.1730   14.8370 C   0  0  1  0  0  0  0  0  0  0  0  0
   28.5730   27.0010   15.5200 N   0  0  0  0  0  0  0  0  0  0  0  0
   28.2700   28.8230   13.8350 C   0  0  0  0  0  0  0  0  0  0  0  0
   26.7460   25.8460   13.7620 C   0  0  0  0  0  0  0  0  0  0  0  0
   26.5090   25.5350   12.3830 C   0  0  0  0  0  0  0  0  0  0  0  0
   25.1990   25.7600   12.0180 C   0  0  0  0  0  0  0  0  0  0  0  0
   24.2670   26.3600   13.3210 S   0  0  0  0  0  0  0  0  0  0  0  0
   25.6210   26.3630   14.3660 C   0  0  0  0  0  0  0  0  0  0  0  0
   25.5710   26.9230   15.8330 C   0  0  0  0  0  0  0  0  0  0  0  0
   25.5260   28.1830   15.9430 O   0  0  0  0  0  0  0  0  0  0  0  0
   25.5370   26.0630   16.7630 O   0  0  0  0  0  1  0  0  0  0  0  0
   30.8402   26.0725   17.9420 H   0  0  0  0  0  0  0  0  0  0  0  0
   30.5532   25.2214   16.3864 H   0  0  0  0  0  0  0  0  0  0  0  0
   31.1427   26.9182   16.3864 H   0  0  0  0  0  0  0  0  0  0  0  0
   28.4553   25.8610   17.2941 H   0  0  0  0  0  0  0  0  0  0  0  0
   27.8795   27.7732   18.3396 H   0  0  0  0  0  0  0  0  0  0  0  0
   29.7006   27.9409   18.4955 H   0  0  0  0  0  0  0  0  0  0  0  0
   27.7657   29.4706   16.7934 H   0  0  0  0  0  0  0  0  0  0  0  0
   29.1768   30.0256   17.7799 H   0  0  0  0  0  0  0  0  0  0  0  0
   29.6441   30.2256   15.3823 H   0  0  0  0  0  0  0  0  0  0  0  0
   30.7051   28.9840   16.1755 H   0  0  0  0  0  0  0  0  0  0  0  0
   30.1074   27.7864   14.3044 H   0  0  0  0  0  0  0  0  0  0  0  0
   27.4792   29.3607   14.3785 H   0  0  0  0  0  0  0  0  0  0  0  0
   28.8267   29.5306   13.2030 H   0  0  0  0  0  0  0  0  0  0  0  0
   27.8167   28.0451   13.2030 H   0  0  0  0  0  0  0  0  0  0  0  0
   27.2823   25.1605   11.6962 H   0  0  0  0  0  0  0  0  0  0  0  0
   24.8005   25.5758   11.0094 H   0  0  0  0  0  0  0  0  0  0  0  0
  2  1  2  0
  3  1  2  0
  5  4  1  0
  6  5  1  0
  7  6  1  0
  8  7  1  0
  9  8  1  0
 10  1  1  0
 10  5  1  0
 10  9  1  0
 11  9  1  0
 12  1  1  0
 13 12  1  0
 14 13  2  0
 15 14  1  0
 16 15  1  0
 16 12  2  0
 17 16  1  0
 18 17  2  0
 19 17  1  0
  4 20  1  0
  4 21  1  0
  4 22  1  0
  5 23  1  1
  6 24  1  0
  6 25  1  0
  7 26  1  0
  7 27  1  0
  8 28  1  0
  8 29  1  0
  9 30  1  6
 11 31  1  0
 11 32  1  0
 11 33  1  0
 13 34  1  0
 14 35  1  0
M  CHG  1  19  -1
M  END
$$$$
=
     RDKit          3D

 34 34  0  0  0  0  0  0  0  0999 V2000
   18.8930   16.4920    4.8690 N   0  0  0  0  0  0  0  0  0  0  0  0
   17.5500   16.0160    4.7190 C   0  0  0  0  0  0  0  0  0  0  0  0
   16.7080   16.0720    5.8320 C   0  0  0  0  0  0  0  0  0  0  0  0
   15.3950   15.5980    5.7540 C   0  0  0  0  0  0  0  0  0  0  0  0
   14.9050   15.0610    4.5550 C   0  0  0  0  0  0  0  0  0  0  0  0
   15.7630   14.9910    3.4470 C   0  0  0  0  0  0  0  0  0  0  0  0
   17.0770   15.4630    3.5310 C   0  0  0  0  0  0  0  0  0  0  0  0
   13.4980   14.5300    4.4700 C   0  0  0  0  0  0  0  0  0  0  0  0
   13.1190   13.8230    5.5730 F   0  0  0  0  0  0  0  0  0  0  0  0
   12.5710   15.5190    4.3290 F   0  0  0  0  0  0  0  0  0  0  0  0
   13.3030   13.6890    3.4140 F   0  0  0  0  0  0  0  0  0  0  0  0
   20.1130   15.3210    4.9730 S   0  0  0  0  0  6  0  0  0  0  0  0
   21.3840   15.9910    5.2000 O   0  0  0  0  0  0  0  0  0  0  0  0
   19.9940   14.4270    3.8370 O   0  0  0  0  0  0  0  0  0  0  0  0
   19.7500   14.3890    6.4480 C   0  0  0  0  0  0  0  0  0  0  0  0
   19.2800   17.8950    4.4490 C   0  0  1  0  0  0  0  0  0  0  0  0
   19.7760   18.8190    5.5880 C   0  0  0  0  0  0  0  0  0  0  0  0
   18.8850   19.3990    6.2730 O   0  0  0  0  0  0  0  0  0  0  0  0
   21.0310   18.9260    5.6910 O   0  0  0  0  0  1  0  0  0  0  0  0
   19.7180   17.5340    1.9590 C   0  0  0  0  0  0  0  0  0  0  0  0
   20.3190   17.8920    3.3140 C   0  0  0  0  0  0  0  0  0  0  0  0
   17.0809   16.4924    6.7776 H   0  0  0  0  0  0  0  0  0  0  0  0
   14.7426   15.6466    6.6383 H   0  0  0  0  0  0  0  0  0  0  0  0
   15.3985   14.5605    2.5026 H   0  0  0  0  0  0  0  0  0  0  0  0
   17.7396   15.3973    2.6554 H   0  0  0  0  0  0  0  0  0  0  0  0
   19.9868   14.9971    7.3335 H   0  0  0  0  0  0  0  0  0  0  0  0
   18.6826   14.1233    6.4605 H   0  0  0  0  0  0  0  0  0  0  0  0
   20.3565   13.4714    6.4605 H   0  0  0  0  0  0  0  0  0  0  0  0
   18.3293   18.3206    4.0953 H   0  0  0  0  0  0  0  0  0  0  0  0
   18.7818   16.9763    2.1090 H   0  0  0  0  0  0  0  0  0  0  0  0
   19.5097   18.4553    1.3953 H   0  0  0  0  0  0  0  0  0  0  0  0
   20.4290   16.9121    1.3953 H   0  0  0  0  0  0  0  0  0  0  0  0
   21.1009   17.1572    3.5561 H   0  0  0  0  0  0  0  0  0  0  0  0
   20.7247   18.9115    3.2357 H   0  0  0  0  0  0  0  0  0  0  0  0
  2  1  1  0
  3  2  2  0
  4  3  1  0
  5  4  2  0
  6  5  1  0
  7  6  2  0
  7  2  1  0
  8  5  1  0
  9  8  1  0
 10  8  1  0
 11  8  1  0
 12  1  1  0
 13 12  2  0
 14 12  2  0
 15 12  1  0
 16  1  1  0
 17 16  1  0
 18 17  2  0
 19 17  1  0
 21 20  1  0
 21 16  1  0
  3 22  1  0
  4 23  1  0
  6 24  1  0
  7 25  1  0
 15 26  1  0
 15 27  1  0
 15 28  1  0
 16 29  1  6
 20 30  1  0
 20 31  1  0
 20 32  1  0
 21 33  1  0
 21 34  1  0
M  CHG  1  19  -1
M  END
$$$$
=
     RDKit          3D

 25 26  0  0  0  0  0  0  0  0999 V2000
   19.7670   16.2110    5.4580 C   0  0  1  0  0  0  0  0  0  0  0  0
   20.3960   15.7210    4.1450 C   0  0  0  0  0  0  0  0  0  0  0  0
   19.3250   15.2140    3.2950 O   0  0  0  0  0  0  0  0  0  0  0  0
   18.2080   15.0230    4.1690 C   0  0  1  0  0  0  0  0  0  0  0  0
   18.2970   16.2080    5.1060 C   0  0  1  0  0  0  0  0  0  0  0  0
   17.2280   16.1500    6.1850 C   0  0  0  0  0  0  0  0  0  0  0  0
   15.8440   16.1010    5.5200 C   0  0  0  0  0  0  0  0  0  0  0  0
   15.7280   14.9850    4.4720 C   0  0  0  0  0  0  0  0  0  0  0  0
   16.8690   15.0110    3.4490 C   0  0  0  0  0  0  0  0  0  0  0  0
   21.3320   15.8130    7.1680 O   0  0  0  0  0  1  0  0  0  0  0  0
   20.3730   15.2970    6.5240 C   0  0  0  0  0  0  0  0  0  0  0  0
   19.8530   14.1560    6.6500 O   0  0  0  0  0  0  0  0  0  0  0  0
   19.9483   17.2094    5.8825 H   0  0  0  0  0  0  0  0  0  0  0  0
   20.9087   16.5545    3.6426 H   0  0  0  0  0  0  0  0  0  0  0  0
   21.1324   14.9289    4.3458 H   0  0  0  0  0  0  0  0  0  0  0  0
   18.2526   14.0446    4.6698 H   0  0  0  0  0  0  0  0  0  0  0  0
   18.0414   17.2031    4.7130 H   0  0  0  0  0  0  0  0  0  0  0  0
   17.3734   15.2493    6.7994 H   0  0  0  0  0  0  0  0  0  0  0  0
   17.2997   17.0413    6.8257 H   0  0  0  0  0  0  0  0  0  0  0  0
   15.0855   15.9325    6.2986 H   0  0  0  0  0  0  0  0  0  0  0  0
   15.6906   17.0594    5.0024 H   0  0  0  0  0  0  0  0  0  0  0  0
   15.7415   14.0142    4.9892 H   0  0  0  0  0  0  0  0  0  0  0  0
   14.7874   15.1417    3.9236 H   0  0  0  0  0  0  0  0  0  0  0  0
   16.8064   14.1180    2.8098 H   0  0  0  0  0  0  0  0  0  0  0  0
   16.7814   15.9169    2.8311 H   0  0  0  0  0  0  0  0  0  0  0  0
  2  1  1  0
  3  2  1  0
  4  3  1  0
  5  4  1  0
  5  1  1  0
  6  5  1  0
  7  6  1  0
  8  7  1  0
  9  8  1  0
  9  4  1  0
 11 10  1  0
 11  1  1  0
 12 11  2  0
  1 13  1  1
  2 14  1  0
  2 15  1  0
  4 16  1  1
  5 17  1  6
  6 18  1  0
  6 19  1  0
  7 20  1  0
  7 21  1  0
  8 22  1  0
  8 23  1  0
  9 24  1  0
  9 25  1  0
M  CHG  1  10  -1
M  END
$$$$
=
     RDKit          3D

 38 40  0  0  0  0  0  0  0  0999 V2000
   17.5940   15.7380    4.6020 C   0  0  1  0  0  0  0  0  0  0  0  0
   16.3760   14.9950    4.1800 N   0  0  0  0  0  0  0  0  0  0  0  0
   15.0920   15.4580    4.2420 C   0  0  0  0  0  0  0  0  0  0  0  0
   14.7840   16.6000    4.5680 O   0  0  0  0  0  0  0  0  0  0  0  0
   14.0200   14.4770    3.8950 C   0  0  0  0  0  0  0  0  0  0  0  0
   14.3890   13.2980    3.2320 C   0  0  0  0  0  0  0  0  0  0  0  0
   13.4260   12.3460    2.8900 C   0  0  0  0  0  0  0  0  0  0  0  0
   12.0880   12.5630    3.2150 C   0  0  0  0  0  0  0  0  0  0  0  0
   11.7120   13.7270    3.8840 C   0  0  0  0  0  0  0  0  0  0  0  0
   12.6740   14.6820    4.2270 C   0  0  0  0  0  0  0  0  0  0  0  0
   17.0900   15.4880    6.9670 O   0  0  0  0  0  1  0  0  0  0  0  0
   17.3700   16.3070    6.0500 C   0  0  0  0  0  0  0  0  0  0  0  0
   17.5250   17.5710    6.1240 O   0  0  0  0  0  0  0  0  0  0  0  0
   18.8220   14.8180    4.6240 C   0  0  0  0  0  0  0  0  0  0  0  0
   20.0290   15.4130    5.2960 C   0  0  0  0  0  0  0  0  0  0  0  0
   20.6420   14.9290    6.4350 C   0  0  0  0  0  0  0  0  0  0  0  0
   21.6950   15.7410    6.7420 N   0  0  0  0  0  0  0  0  0  0  0  0
   21.8120   16.7450    5.8100 C   0  0  0  0  0  0  0  0  0  0  0  0
   20.7710   16.5720    4.8950 C   0  0  0  0  0  0  0  0  0  0  0  0
   20.6490   17.4970    3.8390 C   0  0  0  0  0  0  0  0  0  0  0  0
   21.5670   18.5490    3.7300 C   0  0  0  0  0  0  0  0  0  0  0  0
   22.5980   18.6890    4.6540 C   0  0  0  0  0  0  0  0  0  0  0  0
   22.7390   17.7900    5.7160 C   0  0  0  0  0  0  0  0  0  0  0  0
   17.7715   16.5511    3.8827 H   0  0  0  0  0  0  0  0  0  0  0  0
   16.5133   14.0448    3.8070 H   0  0  0  0  0  0  0  0  0  0  0  0
   15.4449   13.1215    2.9793 H   0  0  0  0  0  0  0  0  0  0  0  0
   13.7230   11.4262    2.3649 H   0  0  0  0  0  0  0  0  0  0  0  0
   11.3282   11.8153    2.9435 H   0  0  0  0  0  0  0  0  0  0  0  0
   10.6560   13.8945    4.1426 H   0  0  0  0  0  0  0  0  0  0  0  0
   12.3735   15.5967    4.7589 H   0  0  0  0  0  0  0  0  0  0  0  0
   18.5512   13.8946    5.1569 H   0  0  0  0  0  0  0  0  0  0  0  0
   19.1011   14.6400    3.5750 H   0  0  0  0  0  0  0  0  0  0  0  0
   20.3330   14.0375    7.0005 H   0  0  0  0  0  0  0  0  0  0  0  0
   22.3141   15.6191    7.5561 H   0  0  0  0  0  0  0  0  0  0  0  0
   19.8370   17.3933    3.1042 H   0  0  0  0  0  0  0  0  0  0  0  0
   21.4721   19.2716    2.9060 H   0  0  0  0  0  0  0  0  0  0  0  0
   23.3124   19.5187    4.5476 H   0  0  0  0  0  0  0  0  0  0  0  0
   23.5496   17.9000    6.4514 H   0  0  0  0  0  0  0  0  0  0  0  0
  2  1  1  0
  3  2  1  0
  4  3  2  0
  5  3  1  0
  6  5  2  0
  7  6  1  0
  8  7  2  0
  9  8  1  0
 10  9  2  0
 10  5  1  0
 12  1  1  0
 12 11  1  0
 13 12  2  0
 14  1  1  0
 15 14  1  0
 16 15  2  0
 17 16  1  0
 18 17  1  0
 19 15  1  0
 19 18  2  0
 20 19  1  0
 21 20  2  0
 22 21  1  0
 23 22  2  0
 23 18  1  0
  1 24  1  6
  2 25  1  0
  6 26  1  0
  7 27  1  0
  8 28  1  0
  9 29  1  0
 10 30  1  0
 14 31  1  0
 14 32  1  0
 16 33  1  0
 17 34  1  0
 20 35  1  0
 21 36  1  0
 22 37  1  0
 23 38  1  0
M  CHG  1  11  -1
M  END
$$$$
=
     RDKit          3D

 27 27  0  0  0  0  0  0  0  0999 V2000
   18.1160   16.5970    5.2350 C   0  0  0  0  0  0  0  0  0  0  0  0
   18.5250   17.7570    5.9520 O   0  0  0  0  0  0  0  0  0  0  0  0
   19.7190   18.3540    5.4030 C   0  0  0  0  0  0  0  0  0  0  0  0
   20.5570   17.4440    4.5200 C   0  0  0  0  0  0  0  0  0  0  0  0
   19.6740   16.7400    3.4950 C   0  0  0  0  0  0  0  0  0  0  0  0
   18.2710   16.7750    3.8350 O   0  0  0  0  0  0  0  0  0  0  0  0
   16.4800   15.5390    6.8540 C   0  0  0  0  0  0  0  0  0  0  0  0
   16.6290   16.3400    5.5580 C   0  0  0  0  0  0  0  0  0  0  0  0
   15.9030   15.6180    4.4180 C   0  0  0  0  0  0  0  0  0  0  0  0
   21.3750   16.5330    5.4290 C   0  0  0  0  0  0  0  0  0  0  0  0
   21.6310   15.3680    4.9800 O   0  0  0  0  0  0  0  0  0  0  0  0
   21.6260   16.9370    6.6050 O   0  0  0  0  0  1  0  0  0  0  0  0
   21.5760   18.2240    3.6920 C   0  0  0  0  0  0  0  0  0  0  0  0
   21.4470   18.1800    2.4290 O   0  0  0  0  0  0  0  0  0  0  0  0
   22.3830   18.9720    4.3290 O   0  0  0  0  0  1  0  0  0  0  0  0
   18.7415   15.7438    5.5363 H   0  0  0  0  0  0  0  0  0  0  0  0
   19.4175   19.2252    4.8029 H   0  0  0  0  0  0  0  0  0  0  0  0
   20.3539   18.6084    6.2645 H   0  0  0  0  0  0  0  0  0  0  0  0
   19.8101   17.2309    2.5201 H   0  0  0  0  0  0  0  0  0  0  0  0
   19.9788   15.6834    3.4709 H   0  0  0  0  0  0  0  0  0  0  0  0
   16.6049   16.2103    7.7164 H   0  0  0  0  0  0  0  0  0  0  0  0
   15.4810   15.0798    6.8884 H   0  0  0  0  0  0  0  0  0  0  0  0
   17.2470   14.7513    6.8884 H   0  0  0  0  0  0  0  0  0  0  0  0
   16.1610   17.3273    5.6852 H   0  0  0  0  0  0  0  0  0  0  0  0
   15.1822   14.9012    4.8382 H   0  0  0  0  0  0  0  0  0  0  0  0
   15.3695   16.3541    3.7987 H   0  0  0  0  0  0  0  0  0  0  0  0
   16.6361   15.0804    3.7987 H   0  0  0  0  0  0  0  0  0  0  0  0
  2  1  1  0
  3  2  1  0
  4  3  1  0
  5  4  1  0
  6  5  1  0
  6  1  1  0
  8  7  1  0
  8  1  1  0
  9  8  1  0
 10  4  1  0
 11 10  2  0
 12 10  1  0
 13  4  1  0
 14 13  2  0
 15 13  1  0
  1 16  1  0
  3 17  1  0
  3 18  1  0
  5 19  1  0
  5 20  1  0
  7 21  1  0
  7 22  1  0
  7 23  1  0
  8 24  1  0
  9 25  1  0
  9 26  1  0
  9 27  1  0
M  CHG  2  12  -1  15  -1
M  END
$$$$
=
     RDKit          3D

 38 40  0  0  0  0  0  0  0  0999 V2000
   24.3950   24.9110   13.2310 N   0  0  0  0  0  0  0  0  0  0  0  0
   23.8040   26.1330   13.4600 C   0  0  0  0  0  0  0  0  0  0  0  0
   22.6380   26.9680   12.5980 S   0  0  0  0  0  0  0  0  0  0  0  0
   24.4880   26.8390   14.9350 S   0  0  0  0  0  0  0  0  0  0  0  0
   25.7860   25.7010   14.9610 C   0  0  0  0  0  0  0  0  0  0  0  0
   26.9780   25.8440   15.5620 C   0  0  0  0  0  0  0  0  0  0  0  0
   27.2710   26.9040   16.5950 C   0  0  0  0  0  0  0  0  0  0  0  0
   26.5200   27.7870   16.9700 O   0  0  0  0  0  0  0  0  0  0  0  0
   28.5670   26.6250   17.0880 N   0  0  0  0  0  0  0  0  0  0  0  0
   29.1130   25.5200   16.3830 C   0  0  0  0  0  0  0  0  0  0  0  0
   28.2070   25.0470   15.4270 C   0  0  0  0  0  0  0  0  0  0  0  0
   28.6080   24.0880   14.5070 C   0  0  0  0  0  0  0  0  0  0  0  0
   29.8830   23.5260   14.6170 C   0  0  0  0  0  0  0  0  0  0  0  0
   30.7600   23.9480   15.6200 C   0  0  0  0  0  0  0  0  0  0  0  0
   30.3830   24.9610   16.5030 C   0  0  0  0  0  0  0  0  0  0  0  0
   29.2360   27.3110   18.1020 C   0  0  0  0  0  0  0  0  0  0  0  0
   30.3290   26.9930   18.5790 O   0  0  0  0  0  0  0  0  0  0  0  0
   28.5410   28.5290   18.6650 C   0  0  0  0  0  0  0  0  0  0  0  0
   25.3680   24.5340   14.1360 C   0  0  0  0  0  0  0  0  0  0  0  0
   25.7760   23.3990   14.3580 O   0  0  0  0  0  0  0  0  0  0  0  0
   24.1130   24.0070   12.0820 C   0  0  1  0  0  0  0  0  0  0  0  0
   22.5890   23.8190   11.8100 C   0  0  0  0  0  0  0  0  0  0  0  0
   22.2090   24.1220   10.6340 O   0  0  0  0  0  0  0  0  0  0  0  0
   21.8750   23.4110   12.7720 O   0  0  0  0  0  1  0  0  0  0  0  0
   25.0030   24.3380   10.8730 C   0  0  0  0  0  0  0  0  0  0  0  0
   27.3650   24.1060   10.7960 O   0  0  0  0  0  1  0  0  0  0  0  0
   26.2650   23.4770   10.8560 C   0  0  0  0  0  0  0  0  0  0  0  0
   26.0840   22.2250   10.8740 O   0  0  0  0  0  0  0  0  0  0  0  0
   27.9297   23.7737   13.7001 H   0  0  0  0  0  0  0  0  0  0  0  0
   30.1985   22.7457   13.9088 H   0  0  0  0  0  0  0  0  0  0  0  0
   31.7511   23.4800   15.7139 H   0  0  0  0  0  0  0  0  0  0  0  0
   31.0773   25.3120   17.2807 H   0  0  0  0  0  0  0  0  0  0  0  0
   28.5639   28.4889   19.7640 H   0  0  0  0  0  0  0  0  0  0  0  0
   29.0567   29.4375   18.3204 H   0  0  0  0  0  0  0  0  0  0  0  0
   27.4965   28.5472   18.3204 H   0  0  0  0  0  0  0  0  0  0  0  0
   24.4169   22.9862   12.3571 H   0  0  0  0  0  0  0  0  0  0  0  0
   24.4337   24.1565    9.9494 H   0  0  0  0  0  0  0  0  0  0  0  0
   25.3054   25.3932   10.9449 H   0  0  0  0  0  0  0  0  0  0  0  0
  2  1  1  0
  3  2  2  0
  4  2  1  0
  5  4  1  0
  6  5  2  0
  7  6  1  0
  8  7  2  0
  9  7  1  0
 10  9  1  0
 11  6  1  0
 11 10  2  0
 12 11  1  0
 13 12  2  0
 14 13  1  0
 15 14  2  0
 15 10  1  0
 16  9  1  0
 17 16  2  0
 18 16  1  0
 19  5  1  0
 19  1  1  0
 20 19  2  0
 21  1  1  0
 22 21  1  0
 23 22  2  0
 24 22  1  0
 25 21  1  0
 27 25  1  0
 27 26  1  0
 28 27  2  0
 12 29  1  0
 13 30  1  0
 14 31  1  0
 15 32  1  0
 18 33  1  0
 18 34  1  0
 18 35  1  0
 21 36  1  1
 25 37  1  0
 25 38  1  0
M  CHG  2  24  -1  26  -1
M  END
$$$$
=
     RDKit          3D

 24 24  0  0  0  0  0  0  0  0999 V2000
   18.6580   15.8290    5.6550 C   0  0  0  0  0  0  0  0  0  0  0  0
   17.6460   15.7120    6.6110 C   0  0  0  0  0  0  0  0  0  0  0  0
   16.3220   15.5240    6.2150 C   0  0  0  0  0  0  0  0  0  0  0  0
   15.9910   15.4700    4.8540 C   0  0  0  0  0  0  0  0  0  0  0  0
   17.0160   15.6080    3.9040 C   0  0  0  0  0  0  0  0  0  0  0  0
   18.3560   15.8060    4.2860 C   0  0  0  0  0  0  0  0  0  0  0  0
   14.5690   15.2380    4.4190 C   0  0  0  0  0  0  0  0  0  0  0  0
   13.8800   16.3800    4.1430 F   0  0  0  0  0  0  0  0  0  0  0  0
   13.8260   14.5940    5.3710 F   0  0  0  0  0  0  0  0  0  0  0  0
   14.4730   14.4590    3.3040 F   0  0  0  0  0  0  0  0  0  0  0  0
   20.4920   14.8070    6.6220 C   0  0  0  0  0  0  0  0  0  0  0  0
   19.9240   16.0280    6.1390 O   0  0  0  0  0  0  0  0  0  0  0  0
   19.3960   15.9900    3.2060 C   0  0  0  0  0  0  0  0  0  0  0  0
   19.5160   17.4540    2.7790 C   0  0  0  0  0  0  0  0  0  0  0  0
   19.4050   17.6750    1.5380 O   0  0  0  0  0  0  0  0  0  0  0  0
   19.7420   18.2720    3.7180 O   0  0  0  0  0  1  0  0  0  0  0  0
   17.8946   15.7684    7.6811 H   0  0  0  0  0  0  0  0  0  0  0  0
   15.5335   15.4176    6.9746 H   0  0  0  0  0  0  0  0  0  0  0  0
   16.7651   15.5601    2.8341 H   0  0  0  0  0  0  0  0  0  0  0  0
   20.4899   14.8115    7.7220 H   0  0  0  0  0  0  0  0  0  0  0  0
   19.8971   13.9565    6.2577 H   0  0  0  0  0  0  0  0  0  0  0  0
   21.5258   14.7142    6.2577 H   0  0  0  0  0  0  0  0  0  0  0  0
   20.3699   15.6490    3.5872 H   0  0  0  0  0  0  0  0  0  0  0  0
   19.0875   15.4015    2.3293 H   0  0  0  0  0  0  0  0  0  0  0  0
  2  1  2  0
  3  2  1  0
  4  3  2  0
  5  4  1  0
  6  5  2  0
  6  1  1  0
  7  4  1  0
  8  7  1  0
  9  7  1  0
 10  7  1  0
 12 11  1  0
 12  1  1  0
 13  6  1  0
 14 13  1  0
 15 14  2  0
 16 14  1  0
  2 17  1  0
  3 18  1  0
  5 19  1  0
 11 20  1  0
 11 21  1  0
 11 22  1  0
 13 23  1  0
 13 24  1  0
M  CHG  1  16  -1
M  END
$$$$
=
     RDKit          3D

 54 55  0  0  0  0  0  0  0  0999 V2000
   24.1080   25.0270   15.1620 O   0  0  0  0  0  0  0  0  0  0  0  0
   26.4390   27.8720   15.5860 C   0  0  0  0  0  0  0  0  0  0  0  0
   25.3850   26.9740   15.8390 C   0  0  0  0  0  0  0  0  0  0  0  0
   24.5120   27.1280   17.0520 C   0  0  0  0  0  0  0  0  0  0  0  0
   25.1810   25.9120   14.9410 C   0  0  0  0  0  0  0  0  0  0  0  0
   25.9480   25.7580   13.7710 C   0  0  0  0  0  0  0  0  0  0  0  0
   27.0390   26.6300   13.5600 C   0  0  0  0  0  0  0  0  0  0  0  0
   27.2810   27.6990   14.4680 C   0  0  0  0  0  0  0  0  0  0  0  0
   27.9320   26.4830   12.3480 C   0  0  0  0  0  0  0  0  0  0  0  0
   25.6300   24.6690   12.7830 C   0  0  0  0  0  0  0  0  0  0  0  0
   28.4290   28.6340   14.2100 C   0  0  0  0  0  0  0  0  0  0  0  0
   28.2070   29.6470   13.4780 O   0  0  0  0  0  0  0  0  0  0  0  0
   29.5300   28.3390   14.7750 O   0  0  0  0  0  1  0  0  0  0  0  0
   27.5380   28.5240   17.5500 C   0  0  0  0  0  0  0  0  0  0  0  0
   26.6130   28.8680   16.5200 O   0  0  0  0  0  0  0  0  0  0  0  0
   22.8910   25.4980   14.7110 C   0  0  0  0  0  0  0  0  0  0  0  0
   22.5860   26.6070   14.3040 O   0  0  0  0  0  0  0  0  0  0  0  0
   21.9040   24.4100   14.8760 C   0  0  0  0  0  0  0  0  0  0  0  0
   21.4810   23.6620   13.7520 C   0  0  0  0  0  0  0  0  0  0  0  0
   22.0410   23.9540   12.3800 C   0  0  0  0  0  0  0  0  0  0  0  0
   20.5680   22.5950   13.9470 C   0  0  0  0  0  0  0  0  0  0  0  0
   20.1580   21.7160   12.7920 C   0  0  0  0  0  0  0  0  0  0  0  0
   20.0290   22.3880   15.2320 C   0  0  0  0  0  0  0  0  0  0  0  0
   20.4400   23.1350   16.3470 C   0  0  0  0  0  0  0  0  0  0  0  0
   21.4290   24.1110   16.1610 C   0  0  0  0  0  0  0  0  0  0  0  0
   19.8670   22.8520   17.7080 C   0  0  0  0  0  0  0  0  0  0  0  0
   21.8870   24.8060   17.2530 O   0  0  0  0  0  0  0  0  0  0  0  0
   21.0160   25.9040   17.5430 C   0  0  0  0  0  0  0  0  0  0  0  0
   19.0740   21.4270   15.4500 O   0  0  0  0  0  0  0  0  0  0  0  0
   25.1235   27.0201   17.9600 H   0  0  0  0  0  0  0  0  0  0  0  0
   24.0427   28.1228   17.0421 H   0  0  0  0  0  0  0  0  0  0  0  0
   23.7306   26.3538   17.0421 H   0  0  0  0  0  0  0  0  0  0  0  0
   28.9684   26.3124   12.6747 H   0  0  0  0  0  0  0  0  0  0  0  0
   27.5926   25.6286   11.7439 H   0  0  0  0  0  0  0  0  0  0  0  0
   27.8844   27.4011   11.7439 H   0  0  0  0  0  0  0  0  0  0  0  0
   25.3616   23.7498   13.3243 H   0  0  0  0  0  0  0  0  0  0  0  0
   24.7858   24.9822   12.1512 H   0  0  0  0  0  0  0  0  0  0  0  0
   26.5101   24.4787   12.1512 H   0  0  0  0  0  0  0  0  0  0  0  0
   27.0739   28.6966   18.5322 H   0  0  0  0  0  0  0  0  0  0  0  0
   27.8136   27.4633   17.4560 H   0  0  0  0  0  0  0  0  0  0  0  0
   28.4398   29.1469   17.4560 H   0  0  0  0  0  0  0  0  0  0  0  0
   23.0123   24.4605   12.4806 H   0  0  0  0  0  0  0  0  0  0  0  0
   22.1745   23.0107   11.8301 H   0  0  0  0  0  0  0  0  0  0  0  0
   21.3440   24.6035   11.8301 H   0  0  0  0  0  0  0  0  0  0  0  0
   19.7226   20.7826   13.1781 H   0  0  0  0  0  0  0  0  0  0  0  0
   19.4122   22.2418   12.1777 H   0  0  0  0  0  0  0  0  0  0  0  0
   21.0401   21.4825   12.1777 H   0  0  0  0  0  0  0  0  0  0  0  0
   20.5690   23.1987   18.4807 H   0  0  0  0  0  0  0  0  0  0  0  0
   18.9087   23.3804   17.8195 H   0  0  0  0  0  0  0  0  0  0  0  0
   19.7041   21.7699   17.8195 H   0  0  0  0  0  0  0  0  0  0  0  0
   20.9235   26.0207   18.6329 H   0  0  0  0  0  0  0  0  0  0  0  0
   21.4312   26.8258   17.1095 H   0  0  0  0  0  0  0  0  0  0  0  0
   20.0239   25.7094   17.1095 H   0  0  0  0  0  0  0  0  0  0  0  0
   18.7047   21.2933   16.3588 H   0  0  0  0  0  0  0  0  0  0  0  0
  3  2  2  0
  4  3  1  0
  5  3  1  0
  5  1  1  0
  6  5  2  0
  7  6  1  0
  8  7  2  0
  8  2  1  0
  9  7  1  0
 10  6  1  0
 11  8  1  0
 12 11  2  0
 13 11  1  0
 15  2  1  0
 15 14  1  0
 16  1  1  0
 17 16  2  0
 18 16  1  0
 19 18  2  0
 20 19  1  0
 21 19  1  0
 22 21  1  0
 23 21  2  0
 24 23  1  0
 25 24  2  0
 25 18  1  0
 26 24  1  0
 27 25  1  0
 28 27  1  0
 29 23  1  0
  4 30  1  0
  4 31  1  0
  4 32  1  0
  9 33  1  0
  9 34  1  0
  9 35  1  0
 10 36  1  0
 10 37  1  0
 10 38  1  0
 14 39  1  0
 14 40  1  0
 14 41  1  0
 20 42  1  0
 20 43  1  0
 20 44  1  0
 22 45  1  0
 22 46  1  0
 22 47  1  0
 26 48  1  0
 26 49  1  0
 26 50  1  0
 28 51  1  0
 28 52  1  0
 28 53  1  0
 29 54  1  0
M  CHG  1  13  -1
M  END
$$$$
=
     RDKit          3D

 43 44  0  0  0  0  0  0  0  0999 V2000
   15.9690   16.1510    4.8660 N   0  0  0  0  0  0  0  0  0  0  0  0
   15.1340   15.1690    5.3280 C   0  0  0  0  0  0  0  0  0  0  0  0
   15.0650   14.8530    6.5150 O   0  0  0  0  0  0  0  0  0  0  0  0
   14.2770   14.5110    4.2330 C   0  0  2  0  0  0  0  0  0  0  0  0
   12.8030   14.5070    4.6660 C   0  0  0  0  0  0  0  0  0  0  0  0
   11.8930   13.9030    3.6010 C   0  0  0  0  0  0  0  0  0  0  0  0
   12.4670   12.6470    2.9500 C   0  0  0  0  0  0  0  0  0  0  0  0
   13.6430   12.0660    3.7270 C   0  0  0  0  0  0  0  0  0  0  0  0
   14.7830   13.0820    3.9010 C   0  0  1  0  0  0  0  0  0  0  0  0
   15.7360   13.1760    2.6870 C   0  0  0  0  0  0  0  0  0  0  0  0
   16.0670   14.3600    2.3730 O   0  0  0  0  0  0  0  0  0  0  0  0
   16.0880   12.0930    2.1500 O   0  0  0  0  0  1  0  0  0  0  0  0
   16.9260   16.8420    5.6790 C   0  0  0  0  0  0  0  0  0  0  0  0
   20.1760   17.5320    4.1410 N   0  0  0  0  0  0  0  0  0  0  0  0
   19.8720   16.4180    3.4500 N   0  0  0  0  0  0  0  0  0  0  0  0
   18.6610   16.0890    3.9050 C   0  0  0  0  0  0  0  0  0  0  0  0
   18.2110   16.9440    4.9360 C   0  0  0  0  0  0  0  0  0  0  0  0
   19.2300   17.8740    5.0740 C   0  0  0  0  0  0  0  0  0  0  0  0
   19.3500   19.0500    5.9740 C   0  0  0  0  0  0  0  0  0  0  0  0
   22.5540   17.7820    4.7370 C   0  0  0  0  0  0  0  0  0  0  0  0
   21.4150   18.2220    3.8350 C   0  0  0  0  0  0  0  0  0  0  0  0
   15.9053   16.4095    3.8710 H   0  0  0  0  0  0  0  0  0  0  0  0
   14.3675   15.0991    3.3079 H   0  0  0  0  0  0  0  0  0  0  0  0
   12.7065   13.9183    5.5902 H   0  0  0  0  0  0  0  0  0  0  0  0
   12.4936   15.5508    4.8232 H   0  0  0  0  0  0  0  0  0  0  0  0
   10.9324   13.6440    4.0701 H   0  0  0  0  0  0  0  0  0  0  0  0
   11.7802   14.6560    2.8071 H   0  0  0  0  0  0  0  0  0  0  0  0
   11.6739   11.8870    2.8918 H   0  0  0  0  0  0  0  0  0  0  0  0
   12.8348   12.9286    1.9523 H   0  0  0  0  0  0  0  0  0  0  0  0
   13.2912   11.7546    4.7216 H   0  0  0  0  0  0  0  0  0  0  0  0
   14.0361   11.2121    3.1558 H   0  0  0  0  0  0  0  0  0  0  0  0
   15.3471   12.6815    4.7562 H   0  0  0  0  0  0  0  0  0  0  0  0
   16.5531   17.8506    5.9105 H   0  0  0  0  0  0  0  0  0  0  0  0
   17.0828   16.2902    6.6176 H   0  0  0  0  0  0  0  0  0  0  0  0
   18.0754   15.2420    3.5183 H   0  0  0  0  0  0  0  0  0  0  0  0
   19.3158   18.7152    7.0213 H   0  0  0  0  0  0  0  0  0  0  0  0
   20.3050   19.5616    5.7835 H   0  0  0  0  0  0  0  0  0  0  0  0
   18.5180   19.7439    5.7835 H   0  0  0  0  0  0  0  0  0  0  0  0
   22.2543   17.8978    5.7890 H   0  0  0  0  0  0  0  0  0  0  0  0
   22.7929   16.7269    4.5378 H   0  0  0  0  0  0  0  0  0  0  0  0
   23.4402   18.4025    4.5378 H   0  0  0  0  0  0  0  0  0  0  0  0
   21.6888   18.0120    2.7905 H   0  0  0  0  0  0  0  0  0  0  0  0
   21.2517   19.2976    3.9974 H   0  0  0  0  0  0  0  0  0  0  0  0
  2  1  1  0
  3  2  2  0
  4  2  1  0
  5  4  1  0
  6  5  1  0
  7  6  1  0
  8  7  1  0
  9  8  1  0
  9  4  1  0
 10  9  1  0
 11 10  2  0
 12 10  1  0
 13  1  1  0
 15 14  1  0
 16 15  2  0
 17 16  1  0
 17 13  1  0
 18 17  2  0
 18 14  1  0
 19 18  1  0
 21 14  1  0
 21 20  1  0
  1 22  1  0
  4 23  1  6
  5 24  1  0
  5 25  1  0
  6 26  1  0
  6 27  1  0
  7 28  1  0
  7 29  1  0
  8 30  1  0
  8 31  1  0
  9 32  1  1
 13 33  1  0
 13 34  1  0
 16 35  1  0
 19 36  1  0
 19 37  1  0
 19 38  1  0
 20 39  1  0
 20 40  1  0
 20 41  1  0
 21 42  1  0
 21 43  1  0
M  CHG  1  12  -1
M  END
$$$$
=
     RDKit          3D

 55 58  0  0  0  0  0  0  0  0999 V2000
    9.3530   12.7960    4.2260 C   0  0  1  0  0  0  0  0  0  0  0  0
    8.7030   12.6580    5.5820 C   0  0  2  0  0  0  0  0  0  0  0  0
    7.2750   12.5770    5.4090 O   0  0  0  0  0  0  0  0  0  0  0  0
    6.9880   12.8210    4.0430 N   0  0  0  0  0  0  0  0  0  0  0  0
    8.2100   13.3320    3.3720 C   0  0  2  0  0  0  0  0  0  0  0  0
    8.2970   12.8110    1.9340 C   0  0  0  0  0  0  0  0  0  0  0  0
    7.7210   13.5140    0.8600 C   0  0  0  0  0  0  0  0  0  0  0  0
    7.8080   13.0220   -0.4440 C   0  0  0  0  0  0  0  0  0  0  0  0
    8.4690   11.8220   -0.6930 C   0  0  0  0  0  0  0  0  0  0  0  0
    9.0410   11.1110    0.3610 C   0  0  0  0  0  0  0  0  0  0  0  0
    8.9570   11.6030    1.6640 C   0  0  0  0  0  0  0  0  0  0  0  0
    5.8550   13.6470    3.7920 C   0  0  0  0  0  0  0  0  0  0  0  0
    4.6250   13.0980    3.3990 C   0  0  0  0  0  0  0  0  0  0  0  0
    3.5160   13.9110    3.1530 C   0  0  0  0  0  0  0  0  0  0  0  0
    3.6200   15.2920    3.2870 C   0  0  0  0  0  0  0  0  0  0  0  0
    4.8350   15.8590    3.6650 C   0  0  0  0  0  0  0  0  0  0  0  0
    5.9420   15.0410    3.9130 C   0  0  0  0  0  0  0  0  0  0  0  0
   11.7990   12.9930    4.3870 N   0  0  0  0  0  0  0  0  0  0  0  0
   10.6180   13.6470    4.0750 C   0  0  0  0  0  0  0  0  0  0  0  0
   10.5680   14.7730    3.5780 O   0  0  0  0  0  0  0  0  0  0  0  0
   15.7260   14.3790    3.6590 C   0  0  0  0  0  0  0  0  0  0  0  0
   15.2790   13.2240    3.0200 C   0  0  0  0  0  0  0  0  0  0  0  0
   13.9790   12.7480    3.2420 C   0  0  0  0  0  0  0  0  0  0  0  0
   13.1080   13.4270    4.0940 C   0  0  0  0  0  0  0  0  0  0  0  0
   13.5600   14.5830    4.7360 C   0  0  0  0  0  0  0  0  0  0  0  0
   14.8570   15.0560    4.5160 C   0  0  0  0  0  0  0  0  0  0  0  0
   16.9610   14.9520    3.5320 O   0  0  0  0  0  0  0  0  0  0  0  0
   19.1360   14.6020    4.5510 C   0  0  0  0  0  0  0  0  0  0  0  0
   18.1130   14.1110    3.5410 C   0  0  0  0  0  0  0  0  0  0  0  0
    9.0750   13.7720    6.5710 C   0  0  0  0  0  0  0  0  0  0  0  0
    8.1810   14.6780    6.6370 O   0  0  0  0  0  0  0  0  0  0  0  0
   10.1260   13.6460    7.2480 O   0  0  0  0  0  1  0  0  0  0  0  0
    9.7766   11.8218    3.9404 H   0  0  0  0  0  0  0  0  0  0  0  0
    9.0899   11.7339    6.0363 H   0  0  0  0  0  0  0  0  0  0  0  0
    8.2273   14.4291    3.2941 H   0  0  0  0  0  0  0  0  0  0  0  0
    7.1962   14.4619    1.0496 H   0  0  0  0  0  0  0  0  0  0  0  0
    7.3543   13.5825   -1.2746 H   0  0  0  0  0  0  0  0  0  0  0  0
    8.5398   11.4354   -1.7204 H   0  0  0  0  0  0  0  0  0  0  0  0
    9.5593   10.1607    0.1651 H   0  0  0  0  0  0  0  0  0  0  0  0
    9.4137   11.0369    2.4892 H   0  0  0  0  0  0  0  0  0  0  0  0
    4.5324   12.0081    3.2826 H   0  0  0  0  0  0  0  0  0  0  0  0
    2.5592   13.4588    2.8529 H   0  0  0  0  0  0  0  0  0  0  0  0
    2.7469   15.9331    3.0954 H   0  0  0  0  0  0  0  0  0  0  0  0
    4.9238   16.9505    3.7685 H   0  0  0  0  0  0  0  0  0  0  0  0
    6.8974   15.4993    4.2081 H   0  0  0  0  0  0  0  0  0  0  0  0
   11.7114   12.0958    4.8852 H   0  0  0  0  0  0  0  0  0  0  0  0
   15.9502   12.6824    2.3372 H   0  0  0  0  0  0  0  0  0  0  0  0
   13.6425   11.8295    2.7390 H   0  0  0  0  0  0  0  0  0  0  0  0
   12.8901   15.1250    5.4197 H   0  0  0  0  0  0  0  0  0  0  0  0
   15.1961   15.9711    5.0235 H   0  0  0  0  0  0  0  0  0  0  0  0
   18.7613   14.4222    5.5695 H   0  0  0  0  0  0  0  0  0  0  0  0
   20.0824   14.0600    4.4074 H   0  0  0  0  0  0  0  0  0  0  0  0
   19.3051   15.6794    4.4074 H   0  0  0  0  0  0  0  0  0  0  0  0
   18.5672   14.1119    2.5391 H   0  0  0  0  0  0  0  0  0  0  0  0
   17.8028   13.0937    3.8218 H   0  0  0  0  0  0  0  0  0  0  0  0
  2  1  1  0
  3  2  1  0
  4  3  1  0
  5  4  1  0
  5  1  1  0
  6  5  1  0
  7  6  2  0
  8  7  1  0
  9  8  2  0
 10  9  1  0
 11 10  2  0
 11  6  1  0
 12  4  1  0
 13 12  2  0
 14 13  1  0
 15 14  2  0
 16 15  1  0
 17 16  2  0
 17 12  1  0
 19  1  1  0
 19 18  1  0
 20 19  2  0
 22 21  2  0
 23 22  1  0
 24 23  2  0
 24 18  1  0
 25 24  1  0
 26 25  2  0
 26 21  1  0
 27 21  1  0
 29 28  1  0
 29 27  1  0
 30  2  1  0
 31 30  2  0
 32 30  1  0
  1 33  1  6
  2 34  1  1
  5 35  1  6
  7 36  1  0
  8 37  1  0
  9 38  1  0
 10 39  1  0
 11 40  1  0
 13 41  1  0
 14 42  1  0
 15 43  1  0
 16 44  1  0
 17 45  1  0
 18 46  1  0
 22 47  1  0
 23 48  1  0
 25 49  1  0
 26 50  1  0
 28 51  1  0
 28 52  1  0
 28 53  1  0
 29 54  1  0
 29 55  1  0
M  CHG  1  32  -1
M  END
$$$$
=
     RDKit          3D

 20 20  0  0  0  0  0  0  0  0999 V2000
   18.2870   15.8960    4.3150 C   0  0  0  0  0  0  0  0  0  0  0  0
   16.9060   15.9180    4.0330 C   0  0  0  0  0  0  0  0  0  0  0  0
   15.9710   15.7930    5.0520 C   0  0  0  0  0  0  0  0  0  0  0  0
   14.6610   15.8170    4.7660 F   0  0  0  0  0  0  0  0  0  0  0  0
   16.3740   15.6350    6.3690 C   0  0  0  0  0  0  0  0  0  0  0  0
   17.7360   15.5940    6.6670 C   0  0  0  0  0  0  0  0  0  0  0  0
   18.7110   15.7120    5.6530 C   0  0  0  0  0  0  0  0  0  0  0  0
   20.1740   15.6270    6.0380 C   0  0  0  0  0  0  0  0  0  0  0  0
   20.3790   15.0400    7.2520 F   0  0  0  0  0  0  0  0  0  0  0  0
   20.9470   14.9530    5.1450 F   0  0  0  0  0  0  0  0  0  0  0  0
   20.7610   16.8610    6.1510 F   0  0  0  0  0  0  0  0  0  0  0  0
   19.2590   16.0220    3.1580 C   0  0  0  0  0  0  0  0  0  0  0  0
   19.6160   17.6620    1.4920 O   0  0  0  0  0  1  0  0  0  0  0  0
   19.4900   17.4760    2.7370 C   0  0  0  0  0  0  0  0  0  0  0  0
   19.5430   18.3120    3.6840 O   0  0  0  0  0  0  0  0  0  0  0  0
   16.5651   16.0355    2.9938 H   0  0  0  0  0  0  0  0  0  0  0  0
   15.6270   15.5429    7.1711 H   0  0  0  0  0  0  0  0  0  0  0  0
   18.0563   15.4674    7.7117 H   0  0  0  0  0  0  0  0  0  0  0  0
   20.2227   15.5852    3.4587 H   0  0  0  0  0  0  0  0  0  0  0  0
   18.8232   15.4920    2.2982 H   0  0  0  0  0  0  0  0  0  0  0  0
  2  1  2  0
  3  2  1  0
  4  3  1  0
  5  3  2  0
  6  5  1  0
  7  1  1  0
  7  6  2  0
  8  7  1  0
  9  8  1  0
 10  8  1  0
 11  8  1  0
 12  1  1  0
 14 12  1  0
 14 13  1  0
 15 14  2  0
  2 16  1  0
  5 17  1  0
  6 18  1  0
 12 19  1  0
 12 20  1  0
M  CHG  1  13  -1
M  END
$$$$
=
     RDKit          3D

 41 42  0  0  0  0  0  0  0  0999 V2000
   28.6230   25.2740   12.5490 C   0  0  1  0  0  0  0  0  0  0  0  0
   27.3940   25.3150   11.6230 C   0  0  0  0  0  0  0  0  0  0  0  0
   26.2570   25.4260   12.6310 C   0  0  1  0  0  0  0  0  0  0  0  0
   26.8080   26.4170   13.6590 C   0  0  2  0  0  0  0  0  0  0  0  0
   28.2300   26.1370   13.6880 N   0  0  0  0  0  0  0  0  0  0  0  0
   29.1700   26.7040   14.5060 C   0  0  0  0  0  0  0  0  0  0  0  0
   30.3790   26.5380   14.3980 O   0  0  0  0  0  0  0  0  0  0  0  0
   26.0010   26.2860   14.9520 C   0  0  0  0  0  0  0  0  0  0  0  0
   24.5140   25.9910   14.6690 C   0  0  0  0  0  0  0  0  0  0  0  0
   24.0570   26.4690   13.2830 C   0  0  0  0  0  0  0  0  0  0  0  0
   24.8950   25.8820   12.1310 C   0  0  0  0  0  0  0  0  0  0  0  0
   29.0520   23.0330   11.8590 O   0  0  0  0  0  1  0  0  0  0  0  0
   28.9370   23.7810   12.8770 C   0  0  0  0  0  0  0  0  0  0  0  0
   28.9900   23.4680   14.1030 O   0  0  0  0  0  0  0  0  0  0  0  0
   28.6010   27.5260   15.4280 O   0  0  0  0  0  0  0  0  0  0  0  0
   28.7310   28.9640   15.3240 C   0  0  0  0  0  0  0  0  0  0  0  0
   28.4440   29.4510   13.8990 C   0  0  0  0  0  0  0  0  0  0  0  0
   27.6400   29.5160   16.2550 C   0  0  0  0  0  0  0  0  0  0  0  0
   30.0930   29.4440   15.8340 C   0  0  0  0  0  0  0  0  0  0  0  0
   29.5683   25.6553   12.1355 H   0  0  0  0  0  0  0  0  0  0  0  0
   27.4242   26.1875   10.9538 H   0  0  0  0  0  0  0  0  0  0  0  0
   27.3121   24.4501   10.9483 H   0  0  0  0  0  0  0  0  0  0  0  0
   26.0141   24.4180   12.9984 H   0  0  0  0  0  0  0  0  0  0  0  0
   26.6999   27.4885   13.4351 H   0  0  0  0  0  0  0  0  0  0  0  0
   26.4196   25.4643   15.5517 H   0  0  0  0  0  0  0  0  0  0  0  0
   26.0640   27.2413   15.4937 H   0  0  0  0  0  0  0  0  0  0  0  0
   24.3542   24.9047   14.7347 H   0  0  0  0  0  0  0  0  0  0  0  0
   23.9231   26.5408   15.4163 H   0  0  0  0  0  0  0  0  0  0  0  0
   23.0079   26.1712   13.1390 H   0  0  0  0  0  0  0  0  0  0  0  0
   24.1843   27.5613   13.2559 H   0  0  0  0  0  0  0  0  0  0  0  0
   24.3625   25.0214   11.7000 H   0  0  0  0  0  0  0  0  0  0  0  0
   25.0423   26.6620   11.3695 H   0  0  0  0  0  0  0  0  0  0  0  0
   27.8859   30.3980   13.9406 H   0  0  0  0  0  0  0  0  0  0  0  0
   29.3939   29.6082   13.3670 H   0  0  0  0  0  0  0  0  0  0  0  0
   27.8463   28.6962   13.3670 H   0  0  0  0  0  0  0  0  0  0  0  0
   27.9403   29.3641   17.3022 H   0  0  0  0  0  0  0  0  0  0  0  0
   27.5049   30.5909   16.0646 H   0  0  0  0  0  0  0  0  0  0  0  0
   26.6939   28.9881   16.0646 H   0  0  0  0  0  0  0  0  0  0  0  0
   30.0934   29.4441   16.9340 H   0  0  0  0  0  0  0  0  0  0  0  0
   30.8805   28.7692   15.4672 H   0  0  0  0  0  0  0  0  0  0  0  0
   30.2834   30.4634   15.4672 H   0  0  0  0  0  0  0  0  0  0  0  0
  2  1  1  0
  3  2  1  0
  4  3  1  0
  5  4  1  0
  5  1  1  0
  6  5  1  0
  7  6  2  0
  8  4  1  0
  9  8  1  0
 10  9  1  0
 11 10  1  0
 11  3  1  0
 13 12  1  0
 13  1  1  0
 14 13  2  0
 15  6  1  0
 16 15  1  0
 17 16  1  0
 18 16  1  0
 19 16  1  0
  1 20  1  6
  2 21  1  0
  2 22  1  0
  3 23  1  1
  4 24  1  6
  8 25  1  0
  8 26  1  0
  9 27  1  0
  9 28  1  0
 10 29  1  0
 10 30  1  0
 11 31  1  0
 11 32  1  0
 17 33  1  0
 17 34  1  0
 17 35  1  0
 18 36  1  0
 18 37  1  0
 18 38  1  0
 19 39  1  0
 19 40  1  0
 19 41  1  0
M  CHG  1  12  -1
M  END
$$$$
=
     RDKit          3D

 27 28  0  0  0  0  0  0  0  0999 V2000
   19.6850   15.9020    4.0460 C   0  0  0  0  0  0  0  0  0  0  0  0
   19.8650   17.1290    3.3310 C   0  0  0  0  0  0  0  0  0  0  0  0
   19.4160   17.4620    1.9570 C   0  0  0  0  0  0  0  0  0  0  0  0
   20.5320   18.0500    4.0440 N   0  0  0  0  0  0  0  0  0  0  0  0
   20.7760   17.4210    5.2090 N   0  0  0  0  0  0  0  0  0  0  0  0
   20.2850   16.1600    5.2620 C   0  0  0  0  0  0  0  0  0  0  0  0
   20.4560   15.3020    6.5360 C   0  0  0  0  0  0  0  0  0  0  0  0
   19.6660   14.3310    6.7030 O   0  0  0  0  0  0  0  0  0  0  0  0
   21.4010   15.6780    7.2930 O   0  0  0  0  0  1  0  0  0  0  0  0
   18.9790   14.6660    3.6040 C   0  0  0  0  0  0  0  0  0  0  0  0
   13.4740   15.4120    4.6250 F   0  0  0  0  0  0  0  0  0  0  0  0
   14.7800   15.2350    4.3810 C   0  0  0  0  0  0  0  0  0  0  0  0
   15.1860   14.2280    3.5170 C   0  0  0  0  0  0  0  0  0  0  0  0
   16.5470   14.0460    3.2670 C   0  0  0  0  0  0  0  0  0  0  0  0
   17.5050   14.8750    3.8760 C   0  0  0  0  0  0  0  0  0  0  0  0
   17.0690   15.8840    4.7510 C   0  0  0  0  0  0  0  0  0  0  0  0
   15.7080   16.0650    5.0010 C   0  0  0  0  0  0  0  0  0  0  0  0
   18.5334   18.1166    2.0082 H   0  0  0  0  0  0  0  0  0  0  0  0
   20.2258   17.9796    1.4219 H   0  0  0  0  0  0  0  0  0  0  0  0
   19.1558   16.5368    1.4219 H   0  0  0  0  0  0  0  0  0  0  0  0
   21.2887   17.8584    5.9879 H   0  0  0  0  0  0  0  0  0  0  0  0
   19.1447   14.5005    2.5292 H   0  0  0  0  0  0  0  0  0  0  0  0
   19.3560   13.7850    4.1441 H   0  0  0  0  0  0  0  0  0  0  0  0
   14.4415   13.5786    3.0332 H   0  0  0  0  0  0  0  0  0  0  0  0
   16.8733   13.2457    2.5865 H   0  0  0  0  0  0  0  0  0  0  0  0
   17.8058   16.5362    5.2427 H   0  0  0  0  0  0  0  0  0  0  0  0
   15.3714   16.8589    5.6839 H   0  0  0  0  0  0  0  0  0  0  0  0
  2  1  1  0
  3  2  1  0
  4  2  2  0
  5  4  1  0
  6  1  2  0
  6  5  1  0
  7  6  1  0
  8  7  2  0
  9  7  1  0
 10  1  1  0
 12 11  1  0
 13 12  2  0
 14 13  1  0
 15 14  2  0
 15 10  1  0
 16 15  1  0
 17 12  1  0
 17 16  2  0
  3 18  1  0
  3 19  1  0
  3 20  1  0
  5 21  1  0
 10 22  1  0
 10 23  1  0
 13 24  1  0
 14 25  1  0
 16 26  1  0
 17 27  1  0
M  CHG  1   9  -1
M  END
$$$$
=
     RDKit          3D

 25 25  0  0  0  0  0  0  0  0999 V2000
   14.0460   13.6850    3.9460 C   0  0  0  0  0  0  0  0  0  0  0  0
   14.4290   14.7270    4.6080 N   0  0  0  0  0  0  0  0  0  0  0  0
   15.7670   15.0680    4.5330 C   0  0  0  0  0  0  0  0  0  0  0  0
   16.1210   16.2950    5.3350 C   0  0  0  0  0  0  0  0  0  0  0  0
   16.6720   14.3770    3.8170 C   0  0  0  0  0  0  0  0  0  0  0  0
   16.2240   13.2000    3.0730 C   0  0  0  0  0  0  0  0  0  0  0  0
   16.9340   12.4780    2.3810 O   0  0  0  0  0  0  0  0  0  0  0  0
   14.8900   12.9240    3.1940 N   0  0  0  0  0  0  0  0  0  0  0  0
   11.6850   14.4400    4.3450 C   0  0  0  0  0  0  0  0  0  0  0  0
   12.5860   13.2610    3.9890 C   0  0  0  0  0  0  0  0  0  0  0  0
   12.1660   12.6190    2.6690 C   0  0  0  0  0  0  0  0  0  0  0  0
   18.1280   14.7760    3.7560 C   0  0  0  0  0  0  0  0  0  0  0  0
   18.3820   15.7880    3.0390 O   0  0  0  0  0  0  0  0  0  0  0  0
   18.9040   14.1020    4.4950 O   0  0  0  0  0  1  0  0  0  0  0  0
   16.0542   16.0634    6.4083 H   0  0  0  0  0  0  0  0  0  0  0  0
   17.1465   16.6093    5.0909 H   0  0  0  0  0  0  0  0  0  0  0  0
   15.4206   17.1073    5.0909 H   0  0  0  0  0  0  0  0  0  0  0  0
   14.5075   12.1074    2.6963 H   0  0  0  0  0  0  0  0  0  0  0  0
   11.6154   14.5311    5.4390 H   0  0  0  0  0  0  0  0  0  0  0  0
   12.1087   15.3648    3.9263 H   0  0  0  0  0  0  0  0  0  0  0  0
   10.6814   14.2741    3.9263 H   0  0  0  0  0  0  0  0  0  0  0  0
   12.4728   12.5047    4.7797 H   0  0  0  0  0  0  0  0  0  0  0  0
   11.5743   11.7145    2.8731 H   0  0  0  0  0  0  0  0  0  0  0  0
   11.5590   13.3317    2.0914 H   0  0  0  0  0  0  0  0  0  0  0  0
   13.0622   12.3483    2.0914 H   0  0  0  0  0  0  0  0  0  0  0  0
  2  1  2  0
  3  2  1  0
  4  3  1  0
  5  3  2  0
  6  5  1  0
  7  6  2  0
  8  6  1  0
  8  1  1  0
 10  9  1  0
 10  1  1  0
 11 10  1  0
 12  5  1  0
 13 12  2  0
 14 12  1  0
  4 15  1  0
  4 16  1  0
  4 17  1  0
  8 18  1  0
  9 19  1  0
  9 20  1  0
  9 21  1  0
 10 22  1  0
 11 23  1  0
 11 24  1  0
 11 25  1  0
M  CHG  1  14  -1
M  END
$$$$
=
     RDKit          3D

 26 27  0  0  0  0  0  0  0  0999 V2000
   18.8270   15.4090    4.1570 C   0  0  1  0  0  0  0  0  0  0  0  0
   17.8650   14.3520    3.7060 C   0  0  0  0  0  0  0  0  0  0  0  0
   18.1030   13.1490    3.0630 C   0  0  0  0  0  0  0  0  0  0  0  0
   17.0070   12.3370    2.7440 C   0  0  0  0  0  0  0  0  0  0  0  0
   15.6950   12.7310    3.0660 C   0  0  0  0  0  0  0  0  0  0  0  0
   15.4600   13.9460    3.7110 C   0  0  0  0  0  0  0  0  0  0  0  0
   16.5600   14.7290    4.0160 C   0  0  0  0  0  0  0  0  0  0  0  0
   16.6060   16.0350    4.6790 C   0  0  0  0  0  0  0  0  0  0  0  0
   15.6270   16.6480    5.0650 O   0  0  0  0  0  0  0  0  0  0  0  0
   17.9330   16.3990    4.7440 N   0  0  0  0  0  0  0  0  0  0  0  0
   18.4310   17.6210    5.3170 C   0  0  0  0  0  0  0  0  0  0  0  0
   19.6550   14.9150    5.1950 O   0  0  0  0  0  0  0  0  0  0  0  0
   21.0190   15.3790    5.0910 C   0  0  0  0  0  0  0  0  0  0  0  0
   21.0410   15.4720    7.4610 O   0  0  0  0  0  1  0  0  0  0  0  0
   21.5450   15.9760    6.4140 C   0  0  0  0  0  0  0  0  0  0  0  0
   22.4100   16.8890    6.3060 O   0  0  0  0  0  0  0  0  0  0  0  0
   19.4775   15.7723    3.3478 H   0  0  0  0  0  0  0  0  0  0  0  0
   19.1273   12.8386    2.8090 H   0  0  0  0  0  0  0  0  0  0  0  0
   17.1745   11.3768    2.2341 H   0  0  0  0  0  0  0  0  0  0  0  0
   14.8491   12.0770    2.8076 H   0  0  0  0  0  0  0  0  0  0  0  0
   14.4402   14.2690    3.9671 H   0  0  0  0  0  0  0  0  0  0  0  0
   18.4020   17.5499    6.4143 H   0  0  0  0  0  0  0  0  0  0  0  0
   19.4676   17.7848    4.9874 H   0  0  0  0  0  0  0  0  0  0  0  0
   17.8041   18.4627    4.9874 H   0  0  0  0  0  0  0  0  0  0  0  0
   21.6593   14.5305    4.8081 H   0  0  0  0  0  0  0  0  0  0  0  0
   21.0432   16.1756    4.3329 H   0  0  0  0  0  0  0  0  0  0  0  0
  2  1  1  0
  3  2  2  0
  4  3  1  0
  5  4  2  0
  6  5  1  0
  7  6  2  0
  7  2  1  0
  8  7  1  0
  9  8  2  0
 10  8  1  0
 10  1  1  0
 11 10  1  0
 12  1  1  0
 13 12  1  0
 15 13  1  0
 15 14  1  0
 16 15  2  0
  1 17  1  6
  3 18  1  0
  4 19  1  0
  5 20  1  0
  6 21  1  0
 11 22  1  0
 11 23  1  0
 11 24  1  0
 13 25  1  0
 13 26  1  0
M  CHG  1  14  -1
M  END
$$$$
=
     RDKit          3D

 25 26  0  0  0  0  0  0  0  0999 V2000
   22.2330   19.0640    4.4130 C   0  0  0  0  0  0  0  0  0  0  0  0
   21.2510   17.9540    4.1990 C   0  0  0  0  0  0  0  0  0  0  0  0
   20.6200   17.7810    2.9670 C   0  0  0  0  0  0  0  0  0  0  0  0
   19.6740   16.7650    2.7980 C   0  0  0  0  0  0  0  0  0  0  0  0
   19.3190   15.8970    3.8530 C   0  0  0  0  0  0  0  0  0  0  0  0
   19.9710   16.0580    5.0950 C   0  0  0  0  0  0  0  0  0  0  0  0
   20.9120   17.0990    5.2540 C   0  0  0  0  0  0  0  0  0  0  0  0
   18.2660   14.8980    3.6330 C   0  0  0  0  0  0  0  0  0  0  0  0
   18.6500   13.6590    3.2480 N   0  0  0  0  0  0  0  0  0  0  0  0
   17.6600   12.7680    3.0730 C   0  0  0  0  0  0  0  0  0  0  0  0
   16.3250   13.0740    3.1980 C   0  0  0  0  0  0  0  0  0  0  0  0
   16.0440   14.3830    3.5050 C   0  0  0  0  0  0  0  0  0  0  0  0
   16.9860   15.3210    3.6830 N   0  0  0  0  0  0  0  0  0  0  0  0
   19.7270   15.1280    6.2620 C   0  0  0  0  0  0  0  0  0  0  0  0
   20.7270   14.5020    6.7350 O   0  0  0  0  0  0  0  0  0  0  0  0
   18.5440   15.1010    6.7300 O   0  0  0  0  0  1  0  0  0  0  0  0
   22.3753   19.2248    5.4918 H   0  0  0  0  0  0  0  0  0  0  0  0
   23.1953   18.7962    3.9522 H   0  0  0  0  0  0  0  0  0  0  0  0
   21.8499   19.9864    3.9522 H   0  0  0  0  0  0  0  0  0  0  0  0
   20.8672   18.4456    2.1261 H   0  0  0  0  0  0  0  0  0  0  0  0
   19.1936   16.6389    1.8165 H   0  0  0  0  0  0  0  0  0  0  0  0
   21.3916   17.2418    6.2336 H   0  0  0  0  0  0  0  0  0  0  0  0
   17.9328   11.7341    2.8149 H   0  0  0  0  0  0  0  0  0  0  0  0
   15.5351   12.3208    3.0613 H   0  0  0  0  0  0  0  0  0  0  0  0
   14.9895   14.6779    3.6106 H   0  0  0  0  0  0  0  0  0  0  0  0
  2  1  1  0
  3  2  2  0
  4  3  1  0
  5  4  2  0
  6  5  1  0
  7  6  2  0
  7  2  1  0
  8  5  1  0
  9  8  2  0
 10  9  1  0
 11 10  2  0
 12 11  1  0
 13 12  2  0
 13  8  1  0
 14  6  1  0
 15 14  2  0
 16 14  1  0
  1 17  1  0
  1 18  1  0
  1 19  1  0
  3 20  1  0
  4 21  1  0
  7 22  1  0
 10 23  1  0
 11 24  1  0
 12 25  1  0
M  CHG  1  16  -1
M  END
$$$$
=
     RDKit          3D

 37 39  0  0  0  0  0  0  0  0999 V2000
   16.2810   16.3020    5.4080 C   0  0  1  0  0  0  0  0  0  0  0  0
   17.5790   16.9050    4.9080 C   0  0  0  0  0  0  0  0  0  0  0  0
   18.2030   15.7430    4.1740 N   0  0  1  0  0  4  0  0  0  0  0  0
   17.0860   15.0010    3.5020 C   0  0  0  0  0  0  0  0  0  0  0  0
   15.8090   15.4910    4.2040 C   0  0  1  0  0  0  0  0  0  0  0  0
   15.8980   15.1000    7.3980 O   0  0  0  0  0  1  0  0  0  0  0  0
   16.7860   15.5300    6.6280 C   0  0  0  0  0  0  0  0  0  0  0  0
   18.0540   15.5030    6.7300 O   0  0  0  0  0  0  0  0  0  0  0  0
   14.8660   14.3780    4.5570 C   0  0  0  0  0  0  0  0  0  0  0  0
   13.9750   13.7660    3.5050 C   0  0  0  0  0  0  0  0  0  0  0  0
   13.3820   14.6320    4.5820 C   0  0  0  0  0  0  0  0  0  0  0  0
   19.4890   15.9340    3.4760 C   0  0  0  0  0  0  0  0  0  0  0  0
   20.5540   16.6530    4.2610 C   0  0  0  0  0  0  0  0  0  0  0  0
   20.9700   17.9400    3.8860 C   0  0  0  0  0  0  0  0  0  0  0  0
   21.9670   18.6010    4.6050 C   0  0  0  0  0  0  0  0  0  0  0  0
   22.5590   17.9860    5.7070 C   0  0  0  0  0  0  0  0  0  0  0  0
   22.1510   16.7120    6.0930 C   0  0  0  0  0  0  0  0  0  0  0  0
   21.1540   16.0480    5.3760 C   0  0  0  0  0  0  0  0  0  0  0  0
   15.4281   16.9226    5.7200 H   0  0  0  0  0  0  0  0  0  0  0  0
   17.3917   17.7513    4.2308 H   0  0  0  0  0  0  0  0  0  0  0  0
   18.2132   17.3169    5.7068 H   0  0  0  0  0  0  0  0  0  0  0  0
   18.6507   15.1111    4.8531 H   0  0  0  0  0  0  0  0  0  0  0  0
   17.0535   15.2392    2.4286 H   0  0  0  0  0  0  0  0  0  0  0  0
   17.2082   13.9104    3.5774 H   0  0  0  0  0  0  0  0  0  0  0  0
   15.2034   16.1173    3.5324 H   0  0  0  0  0  0  0  0  0  0  0  0
   15.6048   13.9848    5.2709 H   0  0  0  0  0  0  0  0  0  0  0  0
   14.0182   14.1302    2.4679 H   0  0  0  0  0  0  0  0  0  0  0  0
   13.7917   12.7451    3.1388 H   0  0  0  0  0  0  0  0  0  0  0  0
   12.9908   15.6293    4.3321 H   0  0  0  0  0  0  0  0  0  0  0  0
   12.5847   14.5058    5.3292 H   0  0  0  0  0  0  0  0  0  0  0  0
   19.8789   14.9412    3.2069 H   0  0  0  0  0  0  0  0  0  0  0  0
   19.2691   16.5749    2.6094 H   0  0  0  0  0  0  0  0  0  0  0  0
   20.5063   18.4318    3.0181 H   0  0  0  0  0  0  0  0  0  0  0  0
   22.2862   19.6090    4.3016 H   0  0  0  0  0  0  0  0  0  0  0  0
   23.3473   18.5064    6.2708 H   0  0  0  0  0  0  0  0  0  0  0  0
   22.6152   16.2276    6.9647 H   0  0  0  0  0  0  0  0  0  0  0  0
   20.8361   15.0421    5.6877 H   0  0  0  0  0  0  0  0  0  0  0  0
  2  1  1  0
  3  2  1  0
  4  3  1  0
  5  1  1  0
  5  4  1  0
  7  1  1  0
  7  6  1  0
  8  7  2  0
  9  5  1  0
 10  9  1  0
 11 10  1  0
 11  9  1  0
 12  3  1  0
 13 12  1  0
 14 13  2  0
 15 14  1  0
 16 15  2  0
 17 16  1  0
 18 13  1  0
 18 17  2  0
  1 19  1  1
  2 20  1  0
  2 21  1  0
  3 22  1  1
  4 23  1  0
  4 24  1  0
  5 25  1  6
  9 26  1  0
 10 27  1  0
 10 28  1  0
 11 29  1  0
 11 30  1  0
 12 31  1  0
 12 32  1  0
 14 33  1  0
 15 34  1  0
 16 35  1  0
 17 36  1  0
 18 37  1  0
M  CHG  2   3   1   6  -1
M  END
$$$$
=
     RDKit          3D

 38 39  0  0  0  0  0  0  0  0999 V2000
   16.8050   15.9460    5.7490 S   0  0  0  0  0  6  0  0  0  0  0  0
   16.7120   17.3450    5.3850 O   0  0  0  0  0  0  0  0  0  0  0  0
   16.6060   15.4950    7.1070 O   0  0  0  0  0  0  0  0  0  0  0  0
   22.0390   16.9230    5.9510 C   0  0  0  0  0  0  0  0  0  0  0  0
   21.3160   15.6660    5.5180 N   0  0  0  0  0  4  0  0  0  0  0  0
   20.4330   15.1290    6.6470 C   0  0  0  0  0  0  0  0  0  0  0  0
   19.1180   14.5170    6.1300 C   0  0  0  0  0  0  0  0  0  0  0  0
   18.3610   15.4580    5.2620 N   0  0  0  0  0  0  0  0  0  0  0  0
   19.1550   16.3760    4.4110 C   0  0  0  0  0  0  0  0  0  0  0  0
   20.5830   15.8560    4.2030 C   0  0  0  0  0  0  0  0  0  0  0  0
   15.6990   15.0490    4.6870 C   0  0  0  0  0  0  0  0  0  0  0  0
   16.2110   14.1680    3.7370 C   0  0  0  0  0  0  0  0  0  0  0  0
   15.3410   13.3220    3.0430 C   0  0  0  0  0  0  0  0  0  0  0  0
   13.9640   13.3010    3.3350 C   0  0  0  0  0  0  0  0  0  0  0  0
   13.4510   14.1900    4.3020 C   0  0  0  0  0  0  0  0  0  0  0  0
   14.3280   15.1060    4.9100 C   0  0  0  0  0  0  0  0  0  0  0  0
   13.0760   12.3200    2.6180 C   0  0  0  0  0  0  0  0  0  0  0  0
   12.0320   14.1500    4.8260 C   0  0  0  0  0  0  0  0  0  0  0  0
   11.8520   13.3800    5.8290 O   0  0  0  0  0  0  0  0  0  0  0  0
   11.1470   14.8450    4.2520 O   0  0  0  0  0  1  0  0  0  0  0  0
   22.0662   16.9703    7.0496 H   0  0  0  0  0  0  0  0  0  0  0  0
   23.0667   16.9084    5.5590 H   0  0  0  0  0  0  0  0  0  0  0  0
   21.5096   17.8040    5.5590 H   0  0  0  0  0  0  0  0  0  0  0  0
   22.0180   14.9365    5.3285 H   0  0  0  0  0  0  0  0  0  0  0  0
   20.9914   14.3544    7.1930 H   0  0  0  0  0  0  0  0  0  0  0  0
   20.1728   15.9764    7.2983 H   0  0  0  0  0  0  0  0  0  0  0  0
   19.3527   13.6120    5.5505 H   0  0  0  0  0  0  0  0  0  0  0  0
   18.4895   14.2835    7.0020 H   0  0  0  0  0  0  0  0  0  0  0  0
   18.6630   16.4709    3.4317 H   0  0  0  0  0  0  0  0  0  0  0  0
   19.2131   17.3514    4.9163 H   0  0  0  0  0  0  0  0  0  0  0  0
   21.1384   16.5796    3.5882 H   0  0  0  0  0  0  0  0  0  0  0  0
   20.5190   14.8772    3.7052 H   0  0  0  0  0  0  0  0  0  0  0  0
   17.2918   14.1383    3.5345 H   0  0  0  0  0  0  0  0  0  0  0  0
   15.7383   12.6629    2.2570 H   0  0  0  0  0  0  0  0  0  0  0  0
   13.9214   15.8824    5.5747 H   0  0  0  0  0  0  0  0  0  0  0  0
   12.5281   11.7147    3.3551 H   0  0  0  0  0  0  0  0  0  0  0  0
   12.3596   12.8669    1.9874 H   0  0  0  0  0  0  0  0  0  0  0  0
   13.6913   11.6614    1.9874 H   0  0  0  0  0  0  0  0  0  0  0  0
  2  1  2  0
  3  1  2  0
  5  4  1  0
  6  5  1  0
  7  6  1  0
  8  7  1  0
  8  1  1  0
  9  8  1  0
 10  5  1  0
 10  9  1  0
 11  1  1  0
 12 11  2  0
 13 12  1  0
 14 13  2  0
 15 14  1  0
 16 15  2  0
 16 11  1  0
 17 14  1  0
 18 15  1  0
 19 18  2  0
 20 18  1  0
  4 21  1  0
  4 22  1  0
  4 23  1  0
  5 24  1  0
  6 25  1  0
  6 26  1  0
  7 27  1  0
  7 28  1  0
  9 29  1  0
  9 30  1  0
 10 31  1  0
 10 32  1  0
 12 33  1  0
 13 34  1  0
 16 35  1  0
 17 36  1  0
 17 37  1  0
 17 38  1  0
M  CHG  2   5   1  20  -1
M  END
$$$$
=
     RDKit          3D

 27 28  0  0  0  0  0  0  0  0999 V2000
   19.0740   16.0810    3.9800 S   0  0  0  0  0  6  0  0  0  0  0  0
   19.0440   17.1580    3.0130 O   0  0  0  0  0  0  0  0  0  0  0  0
   19.8960   14.9090    3.7420 O   0  0  0  0  0  0  0  0  0  0  0  0
   19.5310   16.7230    5.4900 N   0  0  0  0  0  0  0  0  0  0  0  0
   19.8450   18.1880    5.5380 C   0  0  0  0  0  0  0  0  0  0  0  0
   21.2930   18.4780    5.1200 C   0  0  0  0  0  0  0  0  0  0  0  0
   22.2320   17.7090    5.8890 O   0  0  0  0  0  0  0  0  0  0  0  0
   21.9800   16.3060    5.7280 C   0  0  0  0  0  0  0  0  0  0  0  0
   20.5740   15.9460    6.2190 C   0  0  0  0  0  0  0  0  0  0  0  0
   15.6940   14.0930    3.6270 C   0  0  0  0  0  0  0  0  0  0  0  0
   15.2120   15.0520    4.4940 C   0  0  0  0  0  0  0  0  0  0  0  0
   16.2930   15.9170    4.7790 C   0  0  0  0  0  0  0  0  0  0  0  0
   17.4010   15.4550    4.0770 C   0  0  0  0  0  0  0  0  0  0  0  0
   17.0170   14.3300    3.3820 O   0  0  0  0  0  0  0  0  0  0  0  0
   15.4960   12.0380    2.3470 O   0  0  0  0  0  1  0  0  0  0  0  0
   14.8470   12.9070    3.0080 C   0  0  0  0  0  0  0  0  0  0  0  0
   13.5990   12.9270    3.2320 O   0  0  0  0  0  0  0  0  0  0  0  0
   19.1650   18.7198    4.8563 H   0  0  0  0  0  0  0  0  0  0  0  0
   19.7150   18.5302    6.5753 H   0  0  0  0  0  0  0  0  0  0  0  0
   21.4139   18.2275    4.0557 H   0  0  0  0  0  0  0  0  0  0  0  0
   21.4947   19.5444    5.2992 H   0  0  0  0  0  0  0  0  0  0  0  0
   22.0685   16.0435    4.6634 H   0  0  0  0  0  0  0  0  0  0  0  0
   22.7157   15.7450    6.3230 H   0  0  0  0  0  0  0  0  0  0  0  0
   20.5015   16.1691    7.2937 H   0  0  0  0  0  0  0  0  0  0  0  0
   20.4040   14.8754    6.0319 H   0  0  0  0  0  0  0  0  0  0  0  0
   14.1873   15.1284    4.8865 H   0  0  0  0  0  0  0  0  0  0  0  0
   16.2632   16.7974    5.4377 H   0  0  0  0  0  0  0  0  0  0  0  0
  2  1  2  0
  3  1  2  0
  4  1  1  0
  5  4  1  0
  6  5  1  0
  7  6  1  0
  8  7  1  0
  9  4  1  0
  9  8  1  0
 11 10  2  0
 12 11  1  0
 13 12  2  0
 13  1  1  0
 14 10  1  0
 14 13  1  0
 16 15  1  0
 16 10  1  0
 17 16  2  0
  5 18  1  0
  5 19  1  0
  6 20  1  0
  6 21  1  0
  8 22  1  0
  8 23  1  0
  9 24  1  0
  9 25  1  0
 11 26  1  0
 12 27  1  0
M  CHG  1  15  -1
M  END
$$$$
=
     RDKit          3D

 38 39  0  0  0  0  0  0  0  0999 V2000
   18.1050   15.0430    6.9090 O   0  0  0  0  0  0  0  0  0  0  0  0
   17.5240   15.8420    6.1920 C   0  0  0  0  0  0  0  0  0  0  0  0
   18.0720   16.8450    5.4490 N   0  0  0  0  0  0  0  0  0  0  0  0
   19.4380   16.7540    4.8460 C   0  0  1  0  0  0  0  0  0  0  0  0
   19.7650   18.1590    4.2430 C   0  0  0  0  0  0  0  0  0  0  0  0
   20.8210   18.7740    5.1520 C   0  0  0  0  0  0  0  0  0  0  0  0
   21.6300   17.5740    5.5980 C   0  0  0  0  0  0  0  0  0  0  0  0
   20.5480   16.5380    5.9130 C   0  0  2  0  0  0  0  0  0  0  0  0
   21.1340   15.1340    6.0230 C   0  0  0  0  0  0  0  0  0  0  0  0
   19.4170   15.8440    3.5500 C   0  0  0  0  0  0  0  0  0  0  0  0
   19.6670   16.4770    2.4740 O   0  0  0  0  0  0  0  0  0  0  0  0
   19.2170   14.6090    3.7200 O   0  0  0  0  0  1  0  0  0  0  0  0
   16.1770   15.8800    6.0270 O   0  0  0  0  0  0  0  0  0  0  0  0
   15.7780   16.1610    4.6860 C   0  0  0  0  0  0  0  0  0  0  0  0
   15.0540   14.9580    4.1270 C   0  0  0  0  0  0  0  0  0  0  0  0
   13.6980   14.7420    4.4040 C   0  0  0  0  0  0  0  0  0  0  0  0
   13.0440   13.6130    3.9040 C   0  0  0  0  0  0  0  0  0  0  0  0
   13.7410   12.6880    3.1280 C   0  0  0  0  0  0  0  0  0  0  0  0
   15.0920   12.8880    2.8530 C   0  0  0  0  0  0  0  0  0  0  0  0
   15.7460   14.0150    3.3520 C   0  0  0  0  0  0  0  0  0  0  0  0
   17.5219   17.7023    5.2962 H   0  0  0  0  0  0  0  0  0  0  0  0
   20.1562   18.0538    3.2203 H   0  0  0  0  0  0  0  0  0  0  0  0
   18.8664   18.7909    4.1865 H   0  0  0  0  0  0  0  0  0  0  0  0
   21.4480   19.4904    4.6009 H   0  0  0  0  0  0  0  0  0  0  0  0
   20.3923   19.3427    5.9903 H   0  0  0  0  0  0  0  0  0  0  0  0
   22.2941   17.2224    4.7947 H   0  0  0  0  0  0  0  0  0  0  0  0
   22.2928   17.7862    6.4498 H   0  0  0  0  0  0  0  0  0  0  0  0
   20.0915   16.6648    6.9057 H   0  0  0  0  0  0  0  0  0  0  0  0
   21.2461   14.8655    7.0838 H   0  0  0  0  0  0  0  0  0  0  0  0
   20.4604   14.4161    5.5322 H   0  0  0  0  0  0  0  0  0  0  0  0
   22.1181   15.1079    5.5322 H   0  0  0  0  0  0  0  0  0  0  0  0
   15.1075   17.0330    4.6755 H   0  0  0  0  0  0  0  0  0  0  0  0
   16.6641   16.3803    4.0723 H   0  0  0  0  0  0  0  0  0  0  0  0
   13.1442   15.4662    5.0194 H   0  0  0  0  0  0  0  0  0  0  0  0
   11.9778   13.4538    4.1229 H   0  0  0  0  0  0  0  0  0  0  0  0
   13.2245   11.8007    2.7331 H   0  0  0  0  0  0  0  0  0  0  0  0
   15.6431   12.1575    2.2425 H   0  0  0  0  0  0  0  0  0  0  0  0
   16.8140   14.1656    3.1358 H   0  0  0  0  0  0  0  0  0  0  0  0
  2  1  2  0
  3  2  1  0
  4  3  1  0
  5  4  1  0
  6  5  1  0
  7  6  1  0
  8  4  1  0
  8  7  1  0
  9  8  1  0
  4 10  1  6
 11 10  2  0
 12 10  1  0
 13  2  1  0
 14 13  1  0
 15 14  1  0
 16 15  2  0
 17 16  1  0
 18 17  2  0
 19 18  1  0
 20 19  2  0
 20 15  1  0
  3 21  1  0
  5 22  1  0
  5 23  1  0
  6 24  1  0
  6 25  1  0
  7 26  1  0
  7 27  1  0
  8 28  1  1
  9 29  1  0
  9 30  1  0
  9 31  1  0
 14 32  1  0
 14 33  1  0
 16 34  1  0
 17 35  1  0
 18 36  1  0
 19 37  1  0
 20 38  1  0
M  CHG  1  12  -1
M  END
$$$$
=
     RDKit          3D

 68 71  0  0  0  0  0  0  0  0999 V2000
   20.0970   21.1640   14.9410 C   0  0  2  0  0  0  0  0  0  0  0  0
   21.3500   21.5500   15.7220 C   0  0  0  0  0  0  0  0  0  0  0  0
   22.2580   22.5790   15.0290 C   0  0  0  0  0  0  0  0  0  0  0  0
   21.5020   23.7230   14.3130 C   0  0  2  0  0  0  0  0  0  0  0  0
   20.6370   23.0510   13.1870 C   0  0  2  0  0  0  0  0  0  0  0  0
   20.1280   21.6080   13.4880 C   0  0  0  0  0  0  0  0  0  0  0  0
   21.3710   22.9330   11.8320 C   0  0  0  0  0  0  0  0  0  0  0  0
   21.9910   24.2270   11.3590 C   0  0  2  0  0  0  0  0  0  0  0  0
   23.0430   24.7520   12.3460 C   0  0  1  0  0  0  0  0  0  0  0  0
   22.4330   24.9060   13.7600 C   0  0  2  0  0  0  0  0  0  0  0  0
   23.4680   25.4490   14.7850 C   0  0  0  0  0  0  0  0  0  0  0  0
   24.8500   25.7620   14.1970 C   0  0  1  0  0  0  0  0  0  0  0  0
   25.4480   24.5720   13.3960 C   0  0  1  0  0  0  0  0  0  0  0  0
   24.3930   23.9900   12.3640 C   0  0  2  0  0  0  0  0  0  0  0  0
   25.1130   24.0240   11.0070 C   0  0  0  0  0  0  0  0  0  0  0  0
   26.1280   25.1430   11.1230 C   0  0  0  0  0  0  0  0  0  0  0  0
   26.7170   24.9340   12.5210 C   0  0  1  0  0  0  0  0  0  0  0  0
   25.8400   23.4310   14.3670 C   0  0  0  0  0  0  0  0  0  0  0  0
   20.5680   24.4280   15.3440 C   0  0  0  0  0  0  0  0  0  0  0  0
   18.9310   21.6640   15.5910 O   0  0  0  0  0  0  0  0  0  0  0  0
   24.7220   26.9290   13.3820 O   0  0  0  0  0  0  0  0  0  0  0  0
   27.6780   26.0800   12.9750 C   0  0  2  0  0  0  0  0  0  0  0  0
   28.4320   26.6690   11.7700 C   0  0  0  0  0  0  0  0  0  0  0  0
   28.6820   25.5980   14.0480 C   0  0  0  0  0  0  0  0  0  0  0  0
   28.5280   26.2710   15.4120 C   0  0  0  0  0  0  0  0  0  0  0  0
   28.0600   25.3390   16.5360 C   0  0  0  0  0  0  0  0  0  0  0  0
   26.9040   25.5450   16.9990 O   0  0  0  0  0  0  0  0  0  0  0  0
   28.9070   24.4590   16.8640 O   0  0  0  0  0  1  0  0  0  0  0  0
   20.9570   25.2040   11.2010 O   0  0  0  0  0  0  0  0  0  0  0  0
   20.0682   20.0645   14.9268 H   0  0  0  0  0  0  0  0  0  0  0  0
   21.0336   21.9703   16.6880 H   0  0  0  0  0  0  0  0  0  0  0  0
   21.9463   20.6308   15.8191 H   0  0  0  0  0  0  0  0  0  0  0  0
   22.9150   23.0251   15.7902 H   0  0  0  0  0  0  0  0  0  0  0  0
   22.8106   22.0337   14.2497 H   0  0  0  0  0  0  0  0  0  0  0  0
   19.7873   23.7484   13.1468 H   0  0  0  0  0  0  0  0  0  0  0  0
   20.7794   20.9085   12.9435 H   0  0  0  0  0  0  0  0  0  0  0  0
   19.0740   21.6112   13.1733 H   0  0  0  0  0  0  0  0  0  0  0  0
   22.1693   22.1831   11.9343 H   0  0  0  0  0  0  0  0  0  0  0  0
   20.6174   22.6468   11.0836 H   0  0  0  0  0  0  0  0  0  0  0  0
   22.4977   24.0366   10.4014 H   0  0  0  0  0  0  0  0  0  0  0  0
   23.3251   25.7444   11.9643 H   0  0  0  0  0  0  0  0  0  0  0  0
   21.6687   25.6838   13.6157 H   0  0  0  0  0  0  0  0  0  0  0  0
   23.0642   26.3742   15.2221 H   0  0  0  0  0  0  0  0  0  0  0  0
   23.6196   24.6502   15.5259 H   0  0  0  0  0  0  0  0  0  0  0  0
   25.5587   25.9412   15.0190 H   0  0  0  0  0  0  0  0  0  0  0  0
   24.0890   22.9713   12.6466 H   0  0  0  0  0  0  0  0  0  0  0  0
   25.6164   23.0653   10.8134 H   0  0  0  0  0  0  0  0  0  0  0  0
   24.4131   24.1888   10.1745 H   0  0  0  0  0  0  0  0  0  0  0  0
   26.9050   25.0531   10.3496 H   0  0  0  0  0  0  0  0  0  0  0  0
   25.6884   26.1417   10.9839 H   0  0  0  0  0  0  0  0  0  0  0  0
   27.4464   24.1155   12.6102 H   0  0  0  0  0  0  0  0  0  0  0  0
   25.7215   23.7758   15.4048 H   0  0  0  0  0  0  0  0  0  0  0  0
   25.1890   22.5615   14.1929 H   0  0  0  0  0  0  0  0  0  0  0  0
   26.8879   23.1452   14.1929 H   0  0  0  0  0  0  0  0  0  0  0  0
   20.8956   24.1807   16.3645 H   0  0  0  0  0  0  0  0  0  0  0  0
   20.6159   25.5171   15.1973 H   0  0  0  0  0  0  0  0  0  0  0  0
   19.5337   24.0834   15.1973 H   0  0  0  0  0  0  0  0  0  0  0  0
   19.0522   21.6120   16.5722 H   0  0  0  0  0  0  0  0  0  0  0  0
   24.6344   27.7276   13.9606 H   0  0  0  0  0  0  0  0  0  0  0  0
   27.0551   26.8664   13.4261 H   0  0  0  0  0  0  0  0  0  0  0  0
   29.2517   27.3094   12.1277 H   0  0  0  0  0  0  0  0  0  0  0  0
   28.8446   25.8516   11.1604 H   0  0  0  0  0  0  0  0  0  0  0  0
   27.7388   27.2672   11.1604 H   0  0  0  0  0  0  0  0  0  0  0  0
   28.5464   24.5147   14.1827 H   0  0  0  0  0  0  0  0  0  0  0  0
   29.6836   25.8651   13.6800 H   0  0  0  0  0  0  0  0  0  0  0  0
   29.5032   26.6914   15.6989 H   0  0  0  0  0  0  0  0  0  0  0  0
   27.7454   27.0351   15.2953 H   0  0  0  0  0  0  0  0  0  0  0  0
   20.6437   25.5000   12.0923 H   0  0  0  0  0  0  0  0  0  0  0  0
  2  1  1  0
  3  2  1  0
  4  3  1  0
  5  4  1  0
  6  1  1  0
  6  5  1  0
  7  5  1  0
  8  7  1  0
  9  8  1  0
 10  4  1  0
 10  9  1  0
 11 10  1  0
 12 11  1  0
 13 12  1  0
 14 13  1  0
 14  9  1  0
 15 14  1  0
 16 15  1  0
 17 16  1  0
 17 13  1  0
 13 18  1  1
  4 19  1  1
 20  1  1  0
 21 12  1  0
 22 17  1  0
 23 22  1  0
 24 22  1  0
 25 24  1  0
 26 25  1  0
 27 26  2  0
 28 26  1  0
 29  8  1  0
  1 30  1  6
  2 31  1  0
  2 32  1  0
  3 33  1  0
  3 34  1  0
  5 35  1  6
  6 36  1  0
  6 37  1  0
  7 38  1  0
  7 39  1  0
  8 40  1  6
  9 41  1  6
 10 42  1  6
 11 43  1  0
 11 44  1  0
 12 45  1  1
 14 46  1  1
 15 47  1  0
 15 48  1  0
 16 49  1  0
 16 50  1  0
 17 51  1  6
 18 52  1  0
 18 53  1  0
 18 54  1  0
 19 55  1  0
 19 56  1  0
 19 57  1  0
 20 58  1  0
 21 59  1  0
 22 60  1  1
 23 61  1  0
 23 62  1  0
 23 63  1  0
 24 64  1  0
 24 65  1  0
 25 66  1  0
 25 67  1  0
 29 68  1  0
M  CHG  1  28  -1
M  END
$$$$
=
     RDKit          3D

 36 37  0  0  0  0  0  0  0  0999 V2000
   14.7460   14.8760    4.0230 C   0  0  0  0  0  0  0  0  0  0  0  0
   15.2550   15.9050    4.8300 C   0  0  0  0  0  0  0  0  0  0  0  0
   16.6280   16.0270    5.0420 C   0  0  0  0  0  0  0  0  0  0  0  0
   17.4890   15.1090    4.4430 C   0  0  0  0  0  0  0  0  0  0  0  0
   16.9880   14.0880    3.6310 C   0  0  0  0  0  0  0  0  0  0  0  0
   15.6010   13.9390    3.4250 C   0  0  0  0  0  0  0  0  0  0  0  0
   15.1360   12.7540    2.6170 C   0  0  0  0  0  0  0  0  0  0  0  0
   13.8890   12.5430    2.5160 O   0  0  0  0  0  0  0  0  0  0  0  0
   16.0540   12.0810    2.0460 O   0  0  0  0  0  1  0  0  0  0  0  0
   19.2280   15.1680    4.7730 S   0  0  0  0  0  6  0  0  0  0  0  0
   19.4570   14.6050    6.0850 O   0  0  0  0  0  0  0  0  0  0  0  0
   19.9310   14.6750    3.6050 O   0  0  0  0  0  0  0  0  0  0  0  0
   19.5440   16.8150    4.8810 N   0  0  0  0  0  0  0  0  0  0  0  0
   20.4850   17.3080    5.8970 C   0  0  0  0  0  0  0  0  0  0  0  0
   20.7520   18.7910    5.6630 C   0  0  0  0  0  0  0  0  0  0  0  0
   21.7660   18.8290    4.5240 C   0  0  0  0  0  0  0  0  0  0  0  0
   22.5260   17.5050    4.5940 C   0  0  0  0  0  0  0  0  0  0  0  0
   21.8640   16.6870    5.7020 C   0  0  0  0  0  0  0  0  0  0  0  0
   12.8550   14.1820    5.1430 C   0  0  0  0  0  0  0  0  0  0  0  0
   13.3800   14.7910    3.9620 O   0  0  0  0  0  0  0  0  0  0  0  0
   14.5650   16.6216    5.2995 H   0  0  0  0  0  0  0  0  0  0  0  0
   17.0256   16.8358    5.6727 H   0  0  0  0  0  0  0  0  0  0  0  0
   17.6860   13.3902    3.1453 H   0  0  0  0  0  0  0  0  0  0  0  0
   19.9110   17.1100    3.9649 H   0  0  0  0  0  0  0  0  0  0  0  0
   20.0424   17.0763    6.8770 H   0  0  0  0  0  0  0  0  0  0  0  0
   19.8262   19.3108    5.3752 H   0  0  0  0  0  0  0  0  0  0  0  0
   21.1245   19.2938    6.5677 H   0  0  0  0  0  0  0  0  0  0  0  0
   21.2511   18.9237    3.5566 H   0  0  0  0  0  0  0  0  0  0  0  0
   22.4451   19.6894    4.6170 H   0  0  0  0  0  0  0  0  0  0  0  0
   22.4540   16.9735    3.6336 H   0  0  0  0  0  0  0  0  0  0  0  0
   23.5938   17.6681    4.8018 H   0  0  0  0  0  0  0  0  0  0  0  0
   22.4500   16.7522    6.6306 H   0  0  0  0  0  0  0  0  0  0  0  0
   21.7984   15.6209    5.4391 H   0  0  0  0  0  0  0  0  0  0  0  0
   13.2800   14.6750    6.0297 H   0  0  0  0  0  0  0  0  0  0  0  0
   11.7601   14.2875    5.1543 H   0  0  0  0  0  0  0  0  0  0  0  0
   13.1207   13.1146    5.1543 H   0  0  0  0  0  0  0  0  0  0  0  0
  2  1  2  0
  3  2  1  0
  4  3  2  0
  5  4  1  0
  6  1  1  0
  6  5  2  0
  7  6  1  0
  8  7  2  0
  9  7  1  0
 10  4  1  0
 11 10  2  0
 12 10  2  0
 13 10  1  0
 14 13  1  0
 15 14  1  0
 16 15  1  0
 17 16  1  0
 18 14  1  0
 18 17  1  0
 20 19  1  0
 20  1  1  0
  2 21  1  0
  3 22  1  0
  5 23  1  0
 13 24  1  0
 14 25  1  0
 15 26  1  0
 15 27  1  0
 16 28  1  0
 16 29  1  0
 17 30  1  0
 17 31  1  0
 18 32  1  0
 18 33  1  0
 19 34  1  0
 19 35  1  0
 19 36  1  0
M  CHG  1   9  -1
M  END
$$$$
=
     RDKit          3D

 28 29  0  0  0  0  0  0  0  0999 V2000
   18.3410   16.7210    4.4190 C   0  0  0  0  0  0  0  0  0  0  0  0
   18.1960   17.6900    5.2980 N   0  0  0  0  0  0  0  0  0  0  0  0
   17.2460   17.2840    6.2120 N   0  0  0  0  0  0  0  0  0  0  0  0
   16.8370   16.0790    5.8610 C   0  0  0  0  0  0  0  0  0  0  0  0
   17.4630   15.7090    4.6920 N   0  0  0  0  0  0  0  0  0  0  0  0
   15.8480   15.2340    6.5610 C   0  0  0  0  0  0  0  0  0  0  0  0
   17.0710   14.5630    3.8120 N   0  0  0  0  0  0  0  0  0  0  0  0
   15.8260   14.4100    3.2390 C   0  0  0  0  0  0  0  0  0  0  0  0
   15.8050   13.2120    2.5610 C   0  0  0  0  0  0  0  0  0  0  0  0
   17.0710   12.6080    2.7390 C   0  0  0  0  0  0  0  0  0  0  0  0
   17.8230   13.4530    3.5250 C   0  0  0  0  0  0  0  0  0  0  0  0
   19.4170   16.7250    3.0680 S   0  0  0  0  0  0  0  0  0  0  0  0
   21.0090   16.8750    3.9550 C   0  0  0  0  0  0  0  0  0  0  0  0
   21.2430   15.7380    4.9340 C   0  0  0  0  0  0  0  0  0  0  0  0
   22.5380   17.0390    6.4430 O   0  0  0  0  0  1  0  0  0  0  0  0
   21.6610   16.1380    6.3440 C   0  0  0  0  0  0  0  0  0  0  0  0
   21.0680   15.5080    7.2640 O   0  0  0  0  0  0  0  0  0  0  0  0
   15.9762   15.3435    7.6480 H   0  0  0  0  0  0  0  0  0  0  0  0
   14.8323   15.5475    6.2781 H   0  0  0  0  0  0  0  0  0  0  0  0
   15.9991   14.1818    6.2781 H   0  0  0  0  0  0  0  0  0  0  0  0
   14.9919   15.1235    3.3113 H   0  0  0  0  0  0  0  0  0  0  0  0
   14.9608   12.8013    1.9877 H   0  0  0  0  0  0  0  0  0  0  0  0
   17.3955   11.6415    2.3260 H   0  0  0  0  0  0  0  0  0  0  0  0
   18.8527   13.2685    3.8650 H   0  0  0  0  0  0  0  0  0  0  0  0
   21.8245   16.8773    3.2167 H   0  0  0  0  0  0  0  0  0  0  0  0
   20.9810   17.8107    4.5326 H   0  0  0  0  0  0  0  0  0  0  0  0
   20.3077   15.1643    5.0115 H   0  0  0  0  0  0  0  0  0  0  0  0
   22.0915   15.1690    4.5262 H   0  0  0  0  0  0  0  0  0  0  0  0
  2  1  2  0
  3  2  1  0
  4  3  2  0
  5  4  1  0
  5  1  1  0
  6  4  1  0
  7  5  1  0
  8  7  1  0
  9  8  2  0
 10  9  1  0
 11 10  2  0
 11  7  1  0
 12  1  1  0
 13 12  1  0
 14 13  1  0
 16 14  1  0
 16 15  1  0
 17 16  2  0
  6 18  1  0
  6 19  1  0
  6 20  1  0
  8 21  1  0
  9 22  1  0
 10 23  1  0
 11 24  1  0
 13 25  1  0
 13 26  1  0
 14 27  1  0
 14 28  1  0
M  CHG  1  15  -1
M  END
$$$$
=
     RDKit          3D

 43 46  0  0  0  0  0  0  0  0999 V2000
   24.2590   25.9520   13.5460 C   0  0  0  0  0  0  0  0  0  0  0  0
   24.5930   25.6370   12.2280 C   0  0  0  0  0  0  0  0  0  0  0  0
   23.6630   26.1210   11.3310 N   0  0  0  0  0  0  0  0  0  0  0  0
   22.8180   26.7620   12.0850 C   0  0  0  0  0  0  0  0  0  0  0  0
   23.1200   26.7110   13.4130 N   0  0  0  0  0  0  0  0  0  0  0  0
   22.2430   27.3780   14.2410 C   0  0  0  0  0  0  0  0  0  0  0  0
   21.2470   27.9540   13.5440 C   0  0  0  0  0  0  0  0  0  0  0  0
   21.3740   27.6760   11.8000 S   0  0  0  0  0  0  0  0  0  0  0  0
   25.7260   24.8430   11.7970 C   0  0  0  0  0  0  0  0  0  0  0  0
   27.0150   25.3930   11.7280 C   0  0  0  0  0  0  0  0  0  0  0  0
   28.0900   24.6020   11.3190 C   0  0  0  0  0  0  0  0  0  0  0  0
   27.8750   23.2730   10.9720 C   0  0  0  0  0  0  0  0  0  0  0  0
   26.6010   22.7190   11.0160 C   0  0  0  0  0  0  0  0  0  0  0  0
   25.5230   23.5070   11.4230 C   0  0  0  0  0  0  0  0  0  0  0  0
   28.9100   22.5180   10.5810 F   0  0  0  0  0  0  0  0  0  0  0  0
   24.8810   25.6250   14.8420 C   0  0  0  0  0  0  0  0  0  0  0  0
   28.3350   27.8620   15.7980 C   0  0  0  0  0  0  0  0  0  0  0  0
   28.1110   26.6070   16.6310 C   0  0  0  0  0  0  0  0  0  0  0  0
   27.0910   25.6820   15.9960 C   0  0  0  0  0  0  0  0  0  0  0  0
   26.0940   26.4490   15.1480 N   0  0  0  0  0  4  0  0  0  0  0  0
   25.7910   27.8010   15.7550 C   0  0  0  0  0  0  0  0  0  0  0  0
   27.0370   28.6660   15.6420 C   0  0  0  0  0  0  0  0  0  0  0  0
   28.8890   29.6430   17.2380 O   0  0  0  0  0  1  0  0  0  0  0  0
   29.3550   28.8230   16.4060 C   0  0  0  0  0  0  0  0  0  0  0  0
   30.5240   28.6590   15.9670 O   0  0  0  0  0  0  0  0  0  0  0  0
   22.3448   27.4325   15.3349 H   0  0  0  0  0  0  0  0  0  0  0  0
   20.4382   28.5368   14.0089 H   0  0  0  0  0  0  0  0  0  0  0  0
   27.1784   26.4472   11.9961 H   0  0  0  0  0  0  0  0  0  0  0  0
   29.1029   25.0284   11.2715 H   0  0  0  0  0  0  0  0  0  0  0  0
   26.4435   21.6679   10.7324 H   0  0  0  0  0  0  0  0  0  0  0  0
   24.5104   23.0782   11.4504 H   0  0  0  0  0  0  0  0  0  0  0  0
   24.1382   25.7907   15.6362 H   0  0  0  0  0  0  0  0  0  0  0  0
   25.2078   24.5760   14.7883 H   0  0  0  0  0  0  0  0  0  0  0  0
   28.7068   27.4859   14.8335 H   0  0  0  0  0  0  0  0  0  0  0  0
   29.0660   26.0699   16.7289 H   0  0  0  0  0  0  0  0  0  0  0  0
   27.7267   26.9146   17.6147 H   0  0  0  0  0  0  0  0  0  0  0  0
   27.6161   24.9546   15.3595 H   0  0  0  0  0  0  0  0  0  0  0  0
   26.5394   25.1735   16.8005 H   0  0  0  0  0  0  0  0  0  0  0  0
   26.5217   26.6452   14.2317 H   0  0  0  0  0  0  0  0  0  0  0  0
   24.9593   28.2742   15.2124 H   0  0  0  0  0  0  0  0  0  0  0  0
   25.5039   27.6864   16.8107 H   0  0  0  0  0  0  0  0  0  0  0  0
   27.0402   29.1505   14.6545 H   0  0  0  0  0  0  0  0  0  0  0  0
   27.0037   29.4030   16.4579 H   0  0  0  0  0  0  0  0  0  0  0  0
  2  1  2  0
  3  2  1  0
  4  3  2  0
  5  4  1  0
  5  1  1  0
  6  5  1  0
  7  6  2  0
  8  7  1  0
  8  4  1  0
  9  2  1  0
 10  9  2  0
 11 10  1  0
 12 11  2  0
 13 12  1  0
 14 13  2  0
 14  9  1  0
 15 12  1  0
 16  1  1  0
 18 17  1  0
 19 18  1  0
 20 19  1  0
 20 16  1  0
 21 20  1  0
 22 21  1  0
 22 17  1  0
 24 17  1  0
 24 23  1  0
 25 24  2  0
  6 26  1  0
  7 27  1  0
 10 28  1  0
 11 29  1  0
 13 30  1  0
 14 31  1  0
 16 32  1  0
 16 33  1  0
 17 34  1  0
 18 35  1  0
 18 36  1  0
 19 37  1  0
 19 38  1  0
 20 39  1  0
 21 40  1  0
 21 41  1  0
 22 42  1  0
 22 43  1  0
M  CHG  2  20   1  23  -1
M  END
$$$$
=
     RDKit          3D

 48 48  0  0  0  0  0  0  0  0999 V2000
   16.3390   15.3210    4.9100 C   0  0  1  0  0  0  0  0  0  0  0  0
   17.0210   16.0580    6.0750 C   0  0  0  0  0  0  0  0  0  0  0  0
   17.0120   17.3190    6.0400 O   0  0  0  0  0  0  0  0  0  0  0  0
   17.5470   15.2920    6.9380 O   0  0  0  0  0  1  0  0  0  0  0  0
   14.9500   15.8480    4.5360 C   0  0  0  0  0  0  0  0  0  0  0  0
   11.7320   13.8440    3.9960 C   0  0  0  0  0  0  0  0  0  0  0  0
   12.6280   14.8590    4.3560 C   0  0  0  0  0  0  0  0  0  0  0  0
   14.0040   14.7470    4.0990 C   0  0  0  0  0  0  0  0  0  0  0  0
   14.4830   13.6040    3.4530 C   0  0  0  0  0  0  0  0  0  0  0  0
   13.6000   12.5950    3.0720 C   0  0  0  0  0  0  0  0  0  0  0  0
   12.2340   12.6970    3.3580 C   0  0  0  0  0  0  0  0  0  0  0  0
    9.9290   13.8100    5.5450 C   0  0  0  0  0  0  0  0  0  0  0  0
   10.3770   13.9240    4.1970 O   0  0  0  0  0  0  0  0  0  0  0  0
   11.4860   11.6270    2.9300 O   0  0  0  0  0  0  0  0  0  0  0  0
   10.6180   11.9250    1.8400 C   0  0  0  0  0  0  0  0  0  0  0  0
   17.3200   15.5210    3.7520 C   0  0  0  0  0  0  0  0  0  0  0  0
   18.6970   15.5480    4.2060 N   0  0  0  0  0  0  0  0  0  0  0  0
   19.6570   16.2970    3.6050 C   0  0  0  0  0  0  0  0  0  0  0  0
   19.5530   16.8290    2.5090 O   0  0  0  0  0  0  0  0  0  0  0  0
   20.7400   16.3620    4.4150 O   0  0  0  0  0  0  0  0  0  0  0  0
   21.2320   17.6340    4.8980 C   0  0  0  0  0  0  0  0  0  0  0  0
   22.2430   17.2690    5.9950 C   0  0  0  0  0  0  0  0  0  0  0  0
   21.9660   18.4050    3.7950 C   0  0  0  0  0  0  0  0  0  0  0  0
   20.1080   18.4650    5.5280 C   0  0  0  0  0  0  0  0  0  0  0  0
   16.1437   14.2720    5.1774 H   0  0  0  0  0  0  0  0  0  0  0  0
   14.5188   16.3554    5.4115 H   0  0  0  0  0  0  0  0  0  0  0  0
   15.0736   16.5360    3.6867 H   0  0  0  0  0  0  0  0  0  0  0  0
   12.2452   15.7637    4.8509 H   0  0  0  0  0  0  0  0  0  0  0  0
   15.5582   13.5005    3.2450 H   0  0  0  0  0  0  0  0  0  0  0  0
   13.9807   11.7099    2.5413 H   0  0  0  0  0  0  0  0  0  0  0  0
   10.7644   14.0226    6.2283 H   0  0  0  0  0  0  0  0  0  0  0  0
    9.1169   14.5301    5.7236 H   0  0  0  0  0  0  0  0  0  0  0  0
    9.5599   12.7893    5.7236 H   0  0  0  0  0  0  0  0  0  0  0  0
    9.6443   12.2593    2.2275 H   0  0  0  0  0  0  0  0  0  0  0  0
   11.0615   12.7224    1.2255 H   0  0  0  0  0  0  0  0  0  0  0  0
   10.4782   11.0234    1.2255 H   0  0  0  0  0  0  0  0  0  0  0  0
   17.1980   14.6946    3.0363 H   0  0  0  0  0  0  0  0  0  0  0  0
   17.0979   16.4903    3.2817 H   0  0  0  0  0  0  0  0  0  0  0  0
   18.9583   14.9738    5.0202 H   0  0  0  0  0  0  0  0  0  0  0  0
   21.7876   17.4334    6.9827 H   0  0  0  0  0  0  0  0  0  0  0  0
   22.5278   16.2113    5.8940 H   0  0  0  0  0  0  0  0  0  0  0  0
   23.1377   17.9009    5.8940 H   0  0  0  0  0  0  0  0  0  0  0  0
   22.6561   19.1299    4.2514 H   0  0  0  0  0  0  0  0  0  0  0  0
   22.5348   17.6999    3.1711 H   0  0  0  0  0  0  0  0  0  0  0  0
   21.2338   18.9385    3.1711 H   0  0  0  0  0  0  0  0  0  0  0  0
   20.1819   18.4104    6.6242 H   0  0  0  0  0  0  0  0  0  0  0  0
   20.2018   19.5126    5.2059 H   0  0  0  0  0  0  0  0  0  0  0  0
   19.1339   18.0682    5.2059 H   0  0  0  0  0  0  0  0  0  0  0  0
  2  1  1  0
  3  2  2  0
  4  2  1  0
  5  1  1  0
  7  6  2  0
  8  7  1  0
  8  5  1  0
  9  8  2  0
 10  9  1  0
 11 10  2  0
 11  6  1  0
 13 12  1  0
 13  6  1  0
 14 11  1  0
 15 14  1  0
 16  1  1  0
 17 16  1  0
 18 17  1  0
 19 18  2  0
 20 18  1  0
 21 20  1  0
 22 21  1  0
 23 21  1  0
 24 21  1  0
  1 25  1  1
  5 26  1  0
  5 27  1  0
  7 28  1  0
  9 29  1  0
 10 30  1  0
 12 31  1  0
 12 32  1  0
 12 33  1  0
 15 34  1  0
 15 35  1  0
 15 36  1  0
 16 37  1  0
 16 38  1  0
 17 39  1  0
 22 40  1  0
 22 41  1  0
 22 42  1  0
 23 43  1  0
 23 44  1  0
 23 45  1  0
 24 46  1  0
 24 47  1  0
 24 48  1  0
M  CHG  1   4  -1
M  END
$$$$
=
     RDKit          3D

 38 39  0  0  0  0  0  0  0  0999 V2000
   17.8700   15.4810    3.5530 C   0  0  1  0  0  0  0  0  0  0  0  0
   16.4710   15.2630    4.0850 C   0  0  0  0  0  0  0  0  0  0  0  0
   15.7990   15.9890    5.0560 C   0  0  0  0  0  0  0  0  0  0  0  0
   14.5500   15.4590    5.2130 N   0  0  0  0  0  0  0  0  0  0  0  0
   14.3670   14.3990    4.3600 C   0  0  0  0  0  0  0  0  0  0  0  0
   15.5590   14.2400    3.6510 C   0  0  0  0  0  0  0  0  0  0  0  0
   15.6440   13.1870    2.7170 C   0  0  0  0  0  0  0  0  0  0  0  0
   14.5440   12.3460    2.5170 C   0  0  0  0  0  0  0  0  0  0  0  0
   13.3650   12.5380    3.2330 C   0  0  0  0  0  0  0  0  0  0  0  0
   13.2550   13.5680    4.1730 C   0  0  0  0  0  0  0  0  0  0  0  0
   19.7450   17.1990    2.1950 O   0  0  0  0  0  0  0  0  0  0  0  0
   19.3690   17.4170    3.3370 C   0  0  0  0  0  0  0  0  0  0  0  0
   18.3240   16.8190    3.9640 N   0  0  0  0  0  0  0  0  0  0  0  0
   19.9280   18.3120    4.1880 O   0  0  0  0  0  0  0  0  0  0  0  0
   21.2610   18.1030    4.7100 C   0  0  0  0  0  0  0  0  0  0  0  0
   21.5860   16.6120    4.8380 C   0  0  0  0  0  0  0  0  0  0  0  0
   22.3110   18.8500    3.8790 C   0  0  0  0  0  0  0  0  0  0  0  0
   21.2280   18.7180    6.1180 C   0  0  0  0  0  0  0  0  0  0  0  0
   18.8290   14.3590    4.0990 C   0  0  0  0  0  0  0  0  0  0  0  0
   19.1280   14.4220    5.3280 O   0  0  0  0  0  0  0  0  0  0  0  0
   19.1530   13.4770    3.2380 O   0  0  0  0  0  1  0  0  0  0  0  0
   17.8779   15.4224    2.4546 H   0  0  0  0  0  0  0  0  0  0  0  0
   16.2045   16.8494    5.6085 H   0  0  0  0  0  0  0  0  0  0  0  0
   13.8443   15.8060    5.8782 H   0  0  0  0  0  0  0  0  0  0  0  0
   16.5717   13.0274    2.1478 H   0  0  0  0  0  0  0  0  0  0  0  0
   14.6110   11.5255    1.7874 H   0  0  0  0  0  0  0  0  0  0  0  0
   12.5086   11.8705    3.0569 H   0  0  0  0  0  0  0  0  0  0  0  0
   12.3279   13.7200    4.7452 H   0  0  0  0  0  0  0  0  0  0  0  0
   17.8445   17.3063    4.7344 H   0  0  0  0  0  0  0  0  0  0  0  0
   21.6454   16.3397    5.9021 H   0  0  0  0  0  0  0  0  0  0  0  0
   20.7955   16.0214    4.3519 H   0  0  0  0  0  0  0  0  0  0  0  0
   22.5506   16.4039    4.3519 H   0  0  0  0  0  0  0  0  0  0  0  0
   23.0201   19.3545    4.5519 H   0  0  0  0  0  0  0  0  0  0  0  0
   22.8537   18.1339    3.2445 H   0  0  0  0  0  0  0  0  0  0  0  0
   21.8124   19.5976    3.2445 H   0  0  0  0  0  0  0  0  0  0  0  0
   21.2710   17.9159    6.8696 H   0  0  0  0  0  0  0  0  0  0  0  0
   22.0915   19.3873    6.2461 H   0  0  0  0  0  0  0  0  0  0  0  0
   20.2978   19.2910    6.2461 H   0  0  0  0  0  0  0  0  0  0  0  0
  2  1  1  0
  3  2  2  0
  4  3  1  0
  5  4  1  0
  6  5  2  0
  6  2  1  0
  7  6  1  0
  8  7  2  0
  9  8  1  0
 10  9  2  0
 10  5  1  0
 12 11  2  0
 13  1  1  0
 13 12  1  0
 14 12  1  0
 15 14  1  0
 16 15  1  0
 17 15  1  0
 18 15  1  0
 19  1  1  0
 20 19  2  0
 21 19  1  0
  1 22  1  6
  3 23  1  0
  4 24  1  0
  7 25  1  0
  8 26  1  0
  9 27  1  0
 10 28  1  0
 13 29  1  0
 16 30  1  0
 16 31  1  0
 16 32  1  0
 17 33  1  0
 17 34  1  0
 17 35  1  0
 18 36  1  0
 18 37  1  0
 18 38  1  0
M  CHG  1  21  -1
M  END
$$$$
=
     RDKit          3D

 26 26  0  0  0  0  0  0  0  0999 V2000
   17.8040   15.6850    4.2800 C   0  0  0  0  0  0  0  0  0  0  0  0
   17.2720   14.6100    3.5440 C   0  0  0  0  0  0  0  0  0  0  0  0
   15.9110   14.3030    3.6120 C   0  0  0  0  0  0  0  0  0  0  0  0
   15.0750   15.0720    4.4130 C   0  0  0  0  0  0  0  0  0  0  0  0
   15.5720   16.1380    5.1470 C   0  0  0  0  0  0  0  0  0  0  0  0
   16.9280   16.4380    5.0750 C   0  0  0  0  0  0  0  0  0  0  0  0
   17.3810   17.4590    5.8140 F   0  0  0  0  0  0  0  0  0  0  0  0
   13.7710   14.7730    4.4800 F   0  0  0  0  0  0  0  0  0  0  0  0
   19.2910   16.0020    4.1770 C   0  0  2  0  0  0  0  0  0  0  0  0
   19.6180   14.6780    6.3920 C   0  0  0  0  0  0  0  0  0  0  0  0
   20.0790   15.8400    5.5070 C   0  0  0  0  0  0  0  0  0  0  0  0
   21.5900   15.7260    5.2650 C   0  0  0  0  0  0  0  0  0  0  0  0
   19.5450   17.3150    3.3850 C   0  0  0  0  0  0  0  0  0  0  0  0
   19.7550   18.3540    4.0740 O   0  0  0  0  0  0  0  0  0  0  0  0
   19.5860   17.1850    2.1250 O   0  0  0  0  0  1  0  0  0  0  0  0
   17.9351   14.0049    2.9083 H   0  0  0  0  0  0  0  0  0  0  0  0
   15.5039   13.4590    3.0359 H   0  0  0  0  0  0  0  0  0  0  0  0
   14.9017   16.7393    5.7788 H   0  0  0  0  0  0  0  0  0  0  0  0
   19.7448   15.2107    3.5623 H   0  0  0  0  0  0  0  0  0  0  0  0
   19.7286   14.9568    7.4503 H   0  0  0  0  0  0  0  0  0  0  0  0
   18.5623   14.4525    6.1806 H   0  0  0  0  0  0  0  0  0  0  0  0
   20.2320   13.7901    6.1806 H   0  0  0  0  0  0  0  0  0  0  0  0
   19.8548   16.7644    6.0595 H   0  0  0  0  0  0  0  0  0  0  0  0
   22.1141   15.6865    6.2313 H   0  0  0  0  0  0  0  0  0  0  0  0
   21.8019   14.8093    4.6951 H   0  0  0  0  0  0  0  0  0  0  0  0
   21.9371   16.6005    4.6951 H   0  0  0  0  0  0  0  0  0  0  0  0
  2  1  2  0
  3  2  1  0
  4  3  2  0
  5  4  1  0
  6  5  2  0
  6  1  1  0
  7  6  1  0
  8  4  1  0
  9  1  1  0
 11  9  1  0
 11 10  1  0
 12 11  1  0
 13  9  1  0
 14 13  2  0
 15 13  1  0
  2 16  1  0
  3 17  1  0
  5 18  1  0
  9 19  1  6
 10 20  1  0
 10 21  1  0
 10 22  1  0
 11 23  1  0
 12 24  1  0
 12 25  1  0
 12 26  1  0
M  CHG  1  15  -1
M  END
$$$$
=
     RDKit          3D

 38 39  0  0  0  0  0  0  0  0999 V2000
   16.7980   15.2250    3.0960 O   0  0  0  0  0  0  0  0  0  0  0  0
   16.5320   15.2590    4.2920 C   0  0  0  0  0  0  0  0  0  0  0  0
   15.3850   14.7570    4.8950 N   0  0  0  0  0  0  0  0  0  0  0  0
   14.2980   14.1000    4.2810 C   0  0  0  0  0  0  0  0  0  0  0  0
   14.4120   12.9480    3.5040 C   0  0  0  0  0  0  0  0  0  0  0  0
   13.2710   12.3610    2.9390 C   0  0  0  0  0  0  0  0  0  0  0  0
   11.9950   12.9090    3.1390 C   0  0  0  0  0  0  0  0  0  0  0  0
   11.8920   14.0680    3.9200 C   0  0  0  0  0  0  0  0  0  0  0  0
   13.0290   14.6550    4.4850 C   0  0  0  0  0  0  0  0  0  0  0  0
   10.7600   12.2720    2.5300 C   0  0  0  0  0  0  0  0  0  0  0  0
   10.8750   11.0760    2.1130 O   0  0  0  0  0  0  0  0  0  0  0  0
    9.7040   12.9780    2.4830 O   0  0  0  0  0  1  0  0  0  0  0  0
   17.5010   15.8810    5.3280 C   0  0  2  0  0  0  0  0  0  0  0  0
   16.8390   15.8320    6.7050 C   0  0  0  0  0  0  0  0  0  0  0  0
   17.8390   17.2460    5.0950 O   0  0  0  0  0  0  0  0  0  0  0  0
   19.0470   17.5090    4.5130 C   0  0  0  0  0  0  0  0  0  0  0  0
   19.2740   17.7170    3.1530 C   0  0  0  0  0  0  0  0  0  0  0  0
   20.5650   17.9910    2.6920 C   0  0  0  0  0  0  0  0  0  0  0  0
   21.6330   18.0630    3.5870 C   0  0  0  0  0  0  0  0  0  0  0  0
   21.4210   17.8590    4.9540 C   0  0  0  0  0  0  0  0  0  0  0  0
   20.1190   17.5990    5.4070 C   0  0  0  0  0  0  0  0  0  0  0  0
   22.5520   17.9840    5.9280 C   0  0  0  0  0  0  0  0  0  0  0  0
   15.3206   14.8797    5.9156 H   0  0  0  0  0  0  0  0  0  0  0  0
   15.4011   12.4978    3.3336 H   0  0  0  0  0  0  0  0  0  0  0  0
   13.3783   11.4532    2.3271 H   0  0  0  0  0  0  0  0  0  0  0  0
   10.9046   14.5218    4.0909 H   0  0  0  0  0  0  0  0  0  0  0  0
   12.9249   15.5633    5.0967 H   0  0  0  0  0  0  0  0  0  0  0  0
   18.4261   15.2909    5.2509 H   0  0  0  0  0  0  0  0  0  0  0  0
   17.6119   15.8892    7.4856 H   0  0  0  0  0  0  0  0  0  0  0  0
   16.1481   16.6815    6.8101 H   0  0  0  0  0  0  0  0  0  0  0  0
   16.2807   14.8901    6.8101 H   0  0  0  0  0  0  0  0  0  0  0  0
   18.4362   17.6654    2.4420 H   0  0  0  0  0  0  0  0  0  0  0  0
   20.7398   18.1507    1.6178 H   0  0  0  0  0  0  0  0  0  0  0  0
   22.6453   18.2810    3.2159 H   0  0  0  0  0  0  0  0  0  0  0  0
   19.9380   17.4636    6.4835 H   0  0  0  0  0  0  0  0  0  0  0  0
   22.1585   17.9405    6.9543 H   0  0  0  0  0  0  0  0  0  0  0  0
   23.2627   17.1589    5.7725 H   0  0  0  0  0  0  0  0  0  0  0  0
   23.0654   18.9444    5.7725 H   0  0  0  0  0  0  0  0  0  0  0  0
  2  1  2  0
  3  2  1  0
  4  3  1  0
  5  4  2  0
  6  5  1  0
  7  6  2  0
  8  7  1  0
  9  8  2  0
  9  4  1  0
 10  7  1  0
 11 10  2  0
 12 10  1  0
 13  2  1  0
 14 13  1  0
 15 13  1  0
 16 15  1  0
 17 16  2  0
 18 17  1  0
 19 18  2  0
 20 19  1  0
 21 20  2  0
 21 16  1  0
 22 20  1  0
  3 23  1  0
  5 24  1  0
  6 25  1  0
  8 26  1  0
  9 27  1  0
 13 28  1  1
 14 29  1  0
 14 30  1  0
 14 31  1  0
 17 32  1  0
 18 33  1  0
 19 34  1  0
 21 35  1  0
 22 36  1  0
 22 37  1  0
 22 38  1  0
M  CHG  1  12  -1
M  END
$$$$
=
     RDKit          3D

 24 25  0  0  0  0  0  0  0  0999 V2000
   19.8260   16.0020    5.1080 C   0  0  0  0  0  0  0  0  0  0  0  0
   20.1860   17.3590    5.1910 C   0  0  0  0  0  0  0  0  0  0  0  0
   20.2150   18.1540    4.0520 C   0  0  0  0  0  0  0  0  0  0  0  0
   19.8810   17.5670    2.8470 C   0  0  0  0  0  0  0  0  0  0  0  0
   19.5410   16.2710    2.7080 N   0  0  0  0  0  0  0  0  0  0  0  0
   19.5420   15.5050    3.8410 C   0  0  0  0  0  0  0  0  0  0  0  0
   20.8640   14.6920    6.8060 O   0  0  0  0  0  1  0  0  0  0  0  0
   19.7780   15.1720    6.3550 C   0  0  0  0  0  0  0  0  0  0  0  0
   18.6250   14.9770    6.8570 O   0  0  0  0  0  0  0  0  0  0  0  0
   19.1900   14.1830    3.6520 O   0  0  0  0  0  0  0  0  0  0  0  0
   17.8410   13.9800    3.4720 C   0  0  0  0  0  0  0  0  0  0  0  0
   16.9030   14.9440    3.8400 C   0  0  0  0  0  0  0  0  0  0  0  0
   15.5400   14.6820    3.6870 C   0  0  0  0  0  0  0  0  0  0  0  0
   15.1190   13.4510    3.1790 C   0  0  0  0  0  0  0  0  0  0  0  0
   16.0600   12.4800    2.8320 C   0  0  0  0  0  0  0  0  0  0  0  0
   17.4220   12.7410    2.9870 C   0  0  0  0  0  0  0  0  0  0  0  0
   20.4470   17.7949    6.1666 H   0  0  0  0  0  0  0  0  0  0  0  0
   20.4948   19.2163    4.1079 H   0  0  0  0  0  0  0  0  0  0  0  0
   19.8934   18.1968    1.9452 H   0  0  0  0  0  0  0  0  0  0  0  0
   17.2361   15.9089    4.2500 H   0  0  0  0  0  0  0  0  0  0  0  0
   14.7983   15.4447    3.9664 H   0  0  0  0  0  0  0  0  0  0  0  0
   14.0456   13.2465    3.0523 H   0  0  0  0  0  0  0  0  0  0  0  0
   15.7278   11.5089    2.4363 H   0  0  0  0  0  0  0  0  0  0  0  0
   18.1637   11.9713    2.7273 H   0  0  0  0  0  0  0  0  0  0  0  0
  2  1  2  0
  3  2  1  0
  4  3  2  0
  5  4  1  0
  6  5  2  0
  6  1  1  0
  8  1  1  0
  8  7  1  0
  9  8  2  0
 10  6  1  0
 11 10  1  0
 12 11  2  0
 13 12  1  0
 14 13  2  0
 15 14  1  0
 16 15  2  0
 16 11  1  0
  2 17  1  0
  3 18  1  0
  4 19  1  0
 12 20  1  0
 13 21  1  0
 14 22  1  0
 15 23  1  0
 16 24  1  0
M  CHG  1   7  -1
M  END
$$$$
=
     RDKit          3D

 34 34  0  0  0  0  0  0  0  0999 V2000
   16.9460   16.0810    4.9740 C   0  0  0  0  0  0  0  0  0  0  0  0
   15.5990   15.8370    5.2310 C   0  0  0  0  0  0  0  0  0  0  0  0
   14.9500   14.7890    4.5780 C   0  0  0  0  0  0  0  0  0  0  0  0
   15.6510   13.9880    3.6700 C   0  0  0  0  0  0  0  0  0  0  0  0
   16.9760   14.2240    3.4160 N   0  0  0  0  0  0  0  0  0  0  0  0
   17.5780   15.2450    4.0630 C   0  0  0  0  0  0  0  0  0  0  0  0
   14.8940   12.8360    2.9660 C   0  0  0  0  0  0  0  0  0  0  0  0
   15.6030   11.9940    2.3160 O   0  0  0  0  0  0  0  0  0  0  0  0
   13.6250   12.7880    3.0710 O   0  0  0  0  0  1  0  0  0  0  0  0
   17.6850   17.2030    5.6480 C   0  0  0  0  0  0  0  0  0  0  0  0
   18.8220   17.7930    4.8060 C   0  0  0  0  0  0  0  0  0  0  0  0
   19.9230   18.5150    5.5950 C   0  0  0  0  0  0  0  0  0  0  0  0
   21.3340   18.0230    5.2600 C   0  0  0  0  0  0  0  0  0  0  0  0
   21.7830   16.8360    6.1200 C   0  0  0  0  0  0  0  0  0  0  0  0
   20.3300   14.7940    6.6070 C   0  0  0  0  0  0  0  0  0  0  0  0
   21.3120   15.4570    5.6540 C   0  0  0  0  0  0  0  0  0  0  0  0
   15.0496   16.4677    5.9455 H   0  0  0  0  0  0  0  0  0  0  0  0
   13.8862   14.5922    4.7771 H   0  0  0  0  0  0  0  0  0  0  0  0
   18.6425   15.4270    3.8540 H   0  0  0  0  0  0  0  0  0  0  0  0
   16.9668   18.0058    5.8711 H   0  0  0  0  0  0  0  0  0  0  0  0
   18.1445   16.7829    6.5548 H   0  0  0  0  0  0  0  0  0  0  0  0
   19.2906   16.9706    4.2456 H   0  0  0  0  0  0  0  0  0  0  0  0
   18.3581   18.5581    4.1661 H   0  0  0  0  0  0  0  0  0  0  0  0
   19.8659   19.5901    5.3692 H   0  0  0  0  0  0  0  0  0  0  0  0
   19.7502   18.3041    6.6607 H   0  0  0  0  0  0  0  0  0  0  0  0
   21.3552   17.7165    4.2038 H   0  0  0  0  0  0  0  0  0  0  0  0
   22.0256   18.8535    5.4649 H   0  0  0  0  0  0  0  0  0  0  0  0
   22.8829   16.8287    6.1364 H   0  0  0  0  0  0  0  0  0  0  0  0
   21.3204   16.9910    7.1059 H   0  0  0  0  0  0  0  0  0  0  0  0
   20.6319   14.9978    7.6449 H   0  0  0  0  0  0  0  0  0  0  0  0
   19.3213   15.1966    6.4327 H   0  0  0  0  0  0  0  0  0  0  0  0
   20.3264   13.7079    6.4327 H   0  0  0  0  0  0  0  0  0  0  0  0
   22.1921   14.8050    5.5527 H   0  0  0  0  0  0  0  0  0  0  0  0
   20.7860   15.6020    4.6988 H   0  0  0  0  0  0  0  0  0  0  0  0
  2  1  2  0
  3  2  1  0
  4  3  2  0
  5  4  1  0
  6  5  2  0
  6  1  1  0
  7  4  1  0
  8  7  2  0
  9  7  1  0
 10  1  1  0
 11 10  1  0
 12 11  1  0
 13 12  1  0
 14 13  1  0
 16 15  1  0
 16 14  1  0
  2 17  1  0
  3 18  1  0
  6 19  1  0
 10 20  1  0
 10 21  1  0
 11 22  1  0
 11 23  1  0
 12 24  1  0
 12 25  1  0
 13 26  1  0
 13 27  1  0
 14 28  1  0
 14 29  1  0
 15 30  1  0
 15 31  1  0
 15 32  1  0
 16 33  1  0
 16 34  1  0
M  CHG  1   9  -1
M  END
$$$$
=
     RDKit          3D

 28 29  0  0  0  0  0  0  0  0999 V2000
   19.8610   14.2610    3.7600 O   0  0  0  0  0  0  0  0  0  0  0  0
   18.6590   14.4530    3.8870 C   0  0  0  0  0  0  0  0  0  0  0  0
   17.6250   13.6260    3.4500 N   0  0  0  0  0  0  0  0  0  0  0  0
   17.8030   12.3780    2.7600 C   0  0  0  0  0  0  0  0  0  0  0  0
   16.3730   14.1620    3.7680 C   0  0  0  0  0  0  0  0  0  0  0  0
   16.5370   15.3780    4.4340 C   0  0  0  0  0  0  0  0  0  0  0  0
   18.0100   15.6810    4.5750 C   0  0  0  0  0  0  0  0  0  0  0  0
   18.4410   15.7350    6.0400 C   0  0  0  0  0  0  0  0  0  0  0  0
   18.4000   16.9540    3.8260 C   0  0  0  0  0  0  0  0  0  0  0  0
   15.4380   16.1070    4.8560 C   0  0  0  0  0  0  0  0  0  0  0  0
   14.1650   15.5900    4.5940 C   0  0  0  0  0  0  0  0  0  0  0  0
   13.9870   14.3580    3.9200 C   0  0  0  0  0  0  0  0  0  0  0  0
   15.1210   13.6390    3.5030 C   0  0  0  0  0  0  0  0  0  0  0  0
   12.5950   13.8190    3.6490 C   0  0  0  0  0  0  0  0  0  0  0  0
   12.5050   12.8320    2.8520 O   0  0  0  0  0  0  0  0  0  0  0  0
   11.6270   14.3950    4.2360 O   0  0  0  0  0  1  0  0  0  0  0  0
   17.9187   11.5666    3.4937 H   0  0  0  0  0  0  0  0  0  0  0  0
   16.9241   12.1792    2.1291 H   0  0  0  0  0  0  0  0  0  0  0  0
   18.7024   12.4329    2.1291 H   0  0  0  0  0  0  0  0  0  0  0  0
   17.5578   15.6243    6.6863 H   0  0  0  0  0  0  0  0  0  0  0  0
   19.1494   14.9186    6.2441 H   0  0  0  0  0  0  0  0  0  0  0  0
   18.9261   16.7009    6.2441 H   0  0  0  0  0  0  0  0  0  0  0  0
   18.6426   17.7457    4.5501 H   0  0  0  0  0  0  0  0  0  0  0  0
   19.2779   16.7534    3.1943 H   0  0  0  0  0  0  0  0  0  0  0  0
   17.5604   17.2795    3.1943 H   0  0  0  0  0  0  0  0  0  0  0  0
   15.5625   17.0650    5.3821 H   0  0  0  0  0  0  0  0  0  0  0  0
   13.2795   16.1553    4.9201 H   0  0  0  0  0  0  0  0  0  0  0  0
   15.0141   12.6792    2.9763 H   0  0  0  0  0  0  0  0  0  0  0  0
  2  1  2  0
  3  2  1  0
  4  3  1  0
  5  3  1  0
  6  5  2  0
  7  6  1  0
  7  2  1  0
  8  7  1  0
  9  7  1  0
 10  6  1  0
 11 10  2  0
 12 11  1  0
 13 12  2  0
 13  5  1  0
 14 12  1  0
 15 14  2  0
 16 14  1  0
  4 17  1  0
  4 18  1  0
  4 19  1  0
  8 20  1  0
  8 21  1  0
  8 22  1  0
  9 23  1  0
  9 24  1  0
  9 25  1  0
 10 26  1  0
 11 27  1  0
 13 28  1  0
M  CHG  1  16  -1
M  END
$$$$
=
     RDKit          3D

 17 18  0  0  0  0  0  0  0  0999 V2000
   17.8280   14.0670    3.6820 C   0  0  0  0  0  0  0  0  0  0  0  0
   17.8910   12.8850    3.0320 C   0  0  0  0  0  0  0  0  0  0  0  0
   16.7910   12.1470    2.6160 N   0  0  0  0  0  0  0  0  0  0  0  0
   15.6190   12.6440    2.8800 C   0  0  0  0  0  0  0  0  0  0  0  0
   15.4420   13.8930    3.5650 C   0  0  0  0  0  0  0  0  0  0  0  0
   16.5690   14.5950    3.9610 N   0  0  0  0  0  0  0  0  0  0  0  0
   16.1240   15.7410    4.5860 C   0  0  0  0  0  0  0  0  0  0  0  0
   14.7450   15.7600    4.5840 C   0  0  0  0  0  0  0  0  0  0  0  0
   14.3100   14.5850    3.9350 C   0  0  0  0  0  0  0  0  0  0  0  0
   19.5750   14.5620    5.2440 O   0  0  0  0  0  1  0  0  0  0  0  0
   19.1330   14.7740    4.0820 C   0  0  0  0  0  0  0  0  0  0  0  0
   19.6480   15.5150    3.1900 O   0  0  0  0  0  0  0  0  0  0  0  0
   18.8890   12.4761    2.8158 H   0  0  0  0  0  0  0  0  0  0  0  0
   14.7259   12.0841    2.5654 H   0  0  0  0  0  0  0  0  0  0  0  0
   16.7692   16.5195    5.0191 H   0  0  0  0  0  0  0  0  0  0  0  0
   14.1032   16.5455    5.0095 H   0  0  0  0  0  0  0  0  0  0  0  0
   13.2678   14.2804    3.7586 H   0  0  0  0  0  0  0  0  0  0  0  0
  2  1  2  0
  3  2  1  0
  4  3  2  0
  5  4  1  0
  6  5  1  0
  6  1  1  0
  7  6  1  0
  8  7  2  0
  9  8  1  0
  9  5  2  0
 11 10  1  0
 11  1  1  0
 12 11  2  0
  2 13  1  0
  4 14  1  0
  7 15  1  0
  8 16  1  0
  9 17  1  0
M  CHG  1  10  -1
M  END
$$$$
=
     RDKit          3D

 29 30  0  0  0  0  0  0  0  0999 V2000
   19.1310   17.1790    5.3910 C   0  0  0  0  0  0  0  0  0  0  0  0
   19.6430   16.1240    5.9940 N   0  0  0  0  0  0  0  0  0  0  0  0
   18.5760   15.3690    6.4360 N   0  0  0  0  0  0  0  0  0  0  0  0
   17.4890   16.0200    6.0770 C   0  0  0  0  0  0  0  0  0  0  0  0
   17.7600   17.1850    5.4120 O   0  0  0  0  0  0  0  0  0  0  0  0
   19.8020   18.3150    4.7140 C   0  0  0  0  0  0  0  0  0  0  0  0
   20.6040   17.8430    3.5110 C   0  0  0  0  0  0  0  0  0  0  0  0
   19.2820   17.8780    1.5430 O   0  0  0  0  0  1  0  0  0  0  0  0
   19.7390   17.1520    2.4660 C   0  0  0  0  0  0  0  0  0  0  0  0
   19.5820   15.9140    2.6640 O   0  0  0  0  0  0  0  0  0  0  0  0
   16.0660   15.6460    6.2360 C   0  0  0  0  0  0  0  0  0  0  0  0
   15.4150   15.8900    4.9870 O   0  0  0  0  0  0  0  0  0  0  0  0
   14.9220   14.8040    4.3190 C   0  0  0  0  0  0  0  0  0  0  0  0
   13.6360   14.2710    4.4480 C   0  0  0  0  0  0  0  0  0  0  0  0
   13.2590   13.1480    3.7020 C   0  0  0  0  0  0  0  0  0  0  0  0
   14.1650   12.5560    2.8250 C   0  0  0  0  0  0  0  0  0  0  0  0
   15.4410   13.0910    2.7010 C   0  0  0  0  0  0  0  0  0  0  0  0
   15.8260   14.2040    3.4390 C   0  0  0  0  0  0  0  0  0  0  0  0
   16.3130   12.5230    1.8570 F   0  0  0  0  0  0  0  0  0  0  0  0
   19.0396   19.0330    4.3775 H   0  0  0  0  0  0  0  0  0  0  0  0
   20.4919   18.7877    5.4285 H   0  0  0  0  0  0  0  0  0  0  0  0
   21.0889   18.7144    3.0468 H   0  0  0  0  0  0  0  0  0  0  0  0
   21.3428   17.1110    3.8692 H   0  0  0  0  0  0  0  0  0  0  0  0
   15.9849   14.5812    6.5000 H   0  0  0  0  0  0  0  0  0  0  0  0
   15.5980   16.2354    7.0382 H   0  0  0  0  0  0  0  0  0  0  0  0
   12.9172   14.7361    5.1387 H   0  0  0  0  0  0  0  0  0  0  0  0
   12.2461   12.7326    3.8085 H   0  0  0  0  0  0  0  0  0  0  0  0
   13.8730   11.6737    2.2365 H   0  0  0  0  0  0  0  0  0  0  0  0
   16.8417   14.6121    3.3303 H   0  0  0  0  0  0  0  0  0  0  0  0
  2  1  2  0
  3  2  1  0
  4  3  2  0
  5  4  1  0
  5  1  1  0
  6  1  1  0
  7  6  1  0
  9  8  1  0
  9  7  1  0
 10  9  2  0
 11  4  1  0
 12 11  1  0
 13 12  1  0
 14 13  2  0
 15 14  1  0
 16 15  2  0
 17 16  1  0
 18 17  2  0
 18 13  1  0
 19 17  1  0
  6 20  1  0
  6 21  1  0
  7 22  1  0
  7 23  1  0
 11 24  1  0
 11 25  1  0
 14 26  1  0
 15 27  1  0
 16 28  1  0
 18 29  1  0
M  CHG  1   8  -1
M  END
$$$$
=
     RDKit          3D

 38 40  0  0  0  0  0  0  0  0999 V2000
   12.9720   14.4710    4.1720 C   0  0  0  0  0  0  0  0  0  0  0  0
   14.0760   15.1820    4.4800 N   0  0  0  0  0  0  0  0  0  0  0  0
   15.0550   14.3760    4.0270 N   0  0  0  0  0  0  0  0  0  0  0  0
   14.5000   13.2390    3.5140 C   0  0  0  0  0  0  0  0  0  0  0  0
   13.2020   13.2400    3.5820 N   0  0  0  0  0  0  0  0  0  0  0  0
   15.6940   12.1420    2.9120 S   0  0  0  0  0  0  0  0  0  0  0  0
   16.9560   13.3160    3.3810 C   0  0  0  0  0  0  0  0  0  0  0  0
   16.4440   14.4290    3.9570 C   0  0  0  0  0  0  0  0  0  0  0  0
   18.3840   12.9870    3.0900 C   0  0  0  0  0  0  0  0  0  0  0  0
   17.2300   15.5690    4.4410 C   0  0  0  0  0  0  0  0  0  0  0  0
   18.0910   16.2150    3.5400 C   0  0  0  0  0  0  0  0  0  0  0  0
   18.8580   17.3090    3.9440 C   0  0  0  0  0  0  0  0  0  0  0  0
   18.7910   17.7670    5.2610 C   0  0  0  0  0  0  0  0  0  0  0  0
   17.9240   17.1340    6.1600 C   0  0  0  0  0  0  0  0  0  0  0  0
   17.1350   16.0380    5.7660 C   0  0  0  0  0  0  0  0  0  0  0  0
   16.2520   15.3720    6.7870 C   0  0  0  0  0  0  0  0  0  0  0  0
   19.6020   18.9510    5.6990 C   0  0  0  0  0  0  0  0  0  0  0  0
   11.5960   14.9740    4.4380 C   0  0  0  0  0  0  0  0  0  0  0  0
   10.6060   13.8390    4.6440 C   0  0  0  0  0  0  0  0  0  0  0  0
   10.8090   13.3480    6.9280 O   0  0  0  0  0  1  0  0  0  0  0  0
   10.0230   13.8110    6.0510 C   0  0  0  0  0  0  0  0  0  0  0  0
    8.8460   14.2440    6.1870 O   0  0  0  0  0  0  0  0  0  0  0  0
   18.9313   12.8609    4.0358 H   0  0  0  0  0  0  0  0  0  0  0  0
   18.4344   12.0537    2.5100 H   0  0  0  0  0  0  0  0  0  0  0  0
   18.8377   13.8041    2.5100 H   0  0  0  0  0  0  0  0  0  0  0  0
   18.1621   15.8548    2.5031 H   0  0  0  0  0  0  0  0  0  0  0  0
   19.5178   17.8122    3.2218 H   0  0  0  0  0  0  0  0  0  0  0  0
   17.8585   17.5010    7.1949 H   0  0  0  0  0  0  0  0  0  0  0  0
   16.5985   15.6334    7.7977 H   0  0  0  0  0  0  0  0  0  0  0  0
   15.2153   15.7150    6.6547 H   0  0  0  0  0  0  0  0  0  0  0  0
   16.2969   14.2809    6.6547 H   0  0  0  0  0  0  0  0  0  0  0  0
   19.6291   18.9906    6.7980 H   0  0  0  0  0  0  0  0  0  0  0  0
   20.6267   18.8577    5.3101 H   0  0  0  0  0  0  0  0  0  0  0  0
   19.1447   19.8728    5.3101 H   0  0  0  0  0  0  0  0  0  0  0  0
   11.6147   15.5980    5.3437 H   0  0  0  0  0  0  0  0  0  0  0  0
   11.2707   15.5546    3.5621 H   0  0  0  0  0  0  0  0  0  0  0  0
    9.7821   13.9566    3.9247 H   0  0  0  0  0  0  0  0  0  0  0  0
   11.1492   12.8946    4.4922 H   0  0  0  0  0  0  0  0  0  0  0  0
  2  1  2  0
  3  2  1  0
  4  3  1  0
  5  4  2  0
  5  1  1  0
  6  4  1  0
  7  6  1  0
  8  3  1  0
  8  7  2  0
  9  7  1  0
 10  8  1  0
 11 10  2  0
 12 11  1  0
 13 12  2  0
 14 13  1  0
 15 10  1  0
 15 14  2  0
 16 15  1  0
 17 13  1  0
 18  1  1  0
 19 18  1  0
 21 19  1  0
 21 20  1  0
 22 21  2  0
  9 23  1  0
  9 24  1  0
  9 25  1  0
 11 26  1  0
 12 27  1  0
 14 28  1  0
 16 29  1  0
 16 30  1  0
 16 31  1  0
 17 32  1  0
 17 33  1  0
 17 34  1  0
 18 35  1  0
 18 36  1  0
 19 37  1  0
 19 38  1  0
M  CHG  1  20  -1
M  END
$$$$
=
     RDKit          3D

 44 46  0  0  0  0  0  0  0  0999 V2000
   16.7060   14.8830    3.4530 C   0  0  1  0  0  0  0  0  0  0  0  0
   17.1150   16.3590    3.5080 C   0  0  0  0  0  0  0  0  0  0  0  0
   17.2900   16.6030    4.9950 N   0  0  1  0  0  4  0  0  0  0  0  0
   17.9010   15.3240    5.5480 C   0  0  0  0  0  0  0  0  0  0  0  0
   17.6600   14.2680    4.4850 C   0  0  2  0  0  0  0  0  0  0  0  0
   12.5630   13.8010    4.2940 C   0  0  0  0  0  0  0  0  0  0  0  0
   12.9800   15.1210    4.4610 C   0  0  0  0  0  0  0  0  0  0  0  0
   14.3000   15.5020    4.1950 C   0  0  0  0  0  0  0  0  0  0  0  0
   15.2450   14.5590    3.7720 C   0  0  0  0  0  0  0  0  0  0  0  0
   14.8020   13.2370    3.5790 C   0  0  0  0  0  0  0  0  0  0  0  0
   13.4810   12.8580    3.8450 C   0  0  0  0  0  0  0  0  0  0  0  0
   10.2950   13.9120    3.5940 C   0  0  0  0  0  0  0  0  0  0  0  0
   11.2490   13.5710    4.5930 O   0  0  0  0  0  0  0  0  0  0  0  0
   19.0790   14.0230    4.0010 C   0  0  0  0  0  0  0  0  0  0  0  0
   19.9580   14.6580    4.6410 O   0  0  0  0  0  0  0  0  0  0  0  0
   19.1840   13.2790    2.9930 O   0  0  0  0  0  1  0  0  0  0  0  0
   17.9690   17.8720    5.4150 C   0  0  0  0  0  0  0  0  0  0  0  0
   19.3920   18.0890    4.9750 C   0  0  0  0  0  0  0  0  0  0  0  0
   20.4090   18.3710    5.8980 C   0  0  0  0  0  0  0  0  0  0  0  0
   21.7250   18.5560    5.4710 C   0  0  0  0  0  0  0  0  0  0  0  0
   22.0410   18.4760    4.1170 C   0  0  0  0  0  0  0  0  0  0  0  0
   21.0410   18.2050    3.1880 C   0  0  0  0  0  0  0  0  0  0  0  0
   19.7250   18.0120    3.6110 C   0  0  0  0  0  0  0  0  0  0  0  0
   16.7799   14.4913    2.4278 H   0  0  0  0  0  0  0  0  0  0  0  0
   18.0561   16.5301    2.9648 H   0  0  0  0  0  0  0  0  0  0  0  0
   16.3822   17.0321    3.0391 H   0  0  0  0  0  0  0  0  0  0  0  0
   16.3693   16.7961    5.4143 H   0  0  0  0  0  0  0  0  0  0  0  0
   18.9792   15.4564    5.7211 H   0  0  0  0  0  0  0  0  0  0  0  0
   17.4542   15.0418    6.5128 H   0  0  0  0  0  0  0  0  0  0  0  0
   17.1834   13.3213    4.7794 H   0  0  0  0  0  0  0  0  0  0  0  0
   12.2590   15.8759    4.8078 H   0  0  0  0  0  0  0  0  0  0  0  0
   14.5985   16.5534    4.3195 H   0  0  0  0  0  0  0  0  0  0  0  0
   15.5120   12.4824    3.2097 H   0  0  0  0  0  0  0  0  0  0  0  0
   13.1689   11.8134    3.6987 H   0  0  0  0  0  0  0  0  0  0  0  0
    9.3635   14.2450    4.0750 H   0  0  0  0  0  0  0  0  0  0  0  0
   10.6943   14.7231    2.9673 H   0  0  0  0  0  0  0  0  0  0  0  0
   10.0897   13.0316    2.9673 H   0  0  0  0  0  0  0  0  0  0  0  0
   17.3731   18.7083    5.0205 H   0  0  0  0  0  0  0  0  0  0  0  0
   18.0269   17.8037    6.5113 H   0  0  0  0  0  0  0  0  0  0  0  0
   20.1676   18.4472    6.9685 H   0  0  0  0  0  0  0  0  0  0  0  0
   22.5154   18.7658    6.2067 H   0  0  0  0  0  0  0  0  0  0  0  0
   23.0781   18.6266    3.7828 H   0  0  0  0  0  0  0  0  0  0  0  0
   21.2882   18.1428    2.1180 H   0  0  0  0  0  0  0  0  0  0  0  0
   18.9407   17.7976    2.8701 H   0  0  0  0  0  0  0  0  0  0  0  0
  2  1  1  0
  3  2  1  0
  4  3  1  0
  5  1  1  0
  5  4  1  0
  7  6  2  0
  8  7  1  0
  9  8  2  0
  9  1  1  0
 10  9  1  0
 11 10  2  0
 11  6  1  0
 13 12  1  0
 13  6  1  0
 14  5  1  0
 15 14  2  0
 16 14  1  0
 17  3  1  0
 18 17  1  0
 19 18  2  0
 20 19  1  0
 21 20  2  0
 22 21  1  0
 23 22  2  0
 23 18  1  0
  1 24  1  6
  2 25  1  0
  2 26  1  0
  3 27  1  1
  4 28  1  0
  4 29  1  0
  5 30  1  1
  7 31  1  0
  8 32  1  0
 10 33  1  0
 11 34  1  0
 12 35  1  0
 12 36  1  0
 12 37  1  0
 17 38  1  0
 17 39  1  0
 19 40  1  0
 20 41  1  0
 21 42  1  0
 22 43  1  0
 23 44  1  0
M  CHG  2   3   1  16  -1
M  END
$$$$
=
     RDKit          3D

 23 23  0  0  0  0  0  0  0  0999 V2000
   18.6490   14.6850    4.4120 S   0  0  0  0  0  0  0  0  0  0  0  0
   19.8630   15.4190    5.4010 C   0  0  0  0  0  0  0  0  0  0  0  0
   20.3590   14.8590    6.4870 N   0  0  0  0  0  0  0  0  0  0  0  0
   21.3500   15.6790    6.9800 N   0  0  0  0  0  0  0  0  0  0  0  0
   21.4420   16.7030    6.1660 C   0  0  0  0  0  0  0  0  0  0  0  0
   20.5740   16.5490    5.1220 N   0  0  0  0  0  0  0  0  0  0  0  0
   20.5620   17.3870    3.9560 C   0  0  0  0  0  0  0  0  0  0  0  0
   17.1550   15.7260    4.5500 C   0  0  2  0  0  0  0  0  0  0  0  0
   17.0880   16.3110    5.9790 C   0  0  0  0  0  0  0  0  0  0  0  0
   16.6830   15.5500    6.8980 O   0  0  0  0  0  0  0  0  0  0  0  0
   17.3790   17.5470    6.0430 O   0  0  0  0  0  1  0  0  0  0  0  0
   14.5540   15.7570    4.2110 C   0  0  0  0  0  0  0  0  0  0  0  0
   15.8730   14.9950    4.1160 C   0  0  0  0  0  0  0  0  0  0  0  0
   22.1182   17.5596    6.3034 H   0  0  0  0  0  0  0  0  0  0  0  0
   20.5469   18.4430    4.2636 H   0  0  0  0  0  0  0  0  0  0  0  0
   21.4630   17.1928    3.3556 H   0  0  0  0  0  0  0  0  0  0  0  0
   19.6669   17.1671    3.3556 H   0  0  0  0  0  0  0  0  0  0  0  0
   17.2285   16.5622    3.8391 H   0  0  0  0  0  0  0  0  0  0  0  0
   14.2930   15.9078    5.2689 H   0  0  0  0  0  0  0  0  0  0  0  0
   14.6585   16.7339    3.7163 H   0  0  0  0  0  0  0  0  0  0  0  0
   13.7599   15.1785    3.7163 H   0  0  0  0  0  0  0  0  0  0  0  0
   15.7790   14.0964    4.7435 H   0  0  0  0  0  0  0  0  0  0  0  0
   16.0097   14.8097    3.0404 H   0  0  0  0  0  0  0  0  0  0  0  0
  2  1  1  0
  3  2  2  0
  4  3  1  0
  5  4  2  0
  6  2  1  0
  6  5  1  0
  7  6  1  0
  8  1  1  0
  9  8  1  0
 10  9  2  0
 11  9  1  0
 13 12  1  0
 13  8  1  0
  5 14  1  0
  7 15  1  0
  7 16  1  0
  7 17  1  0
  8 18  1  6
 12 19  1  0
 12 20  1  0
 12 21  1  0
 13 22  1  0
 13 23  1  0
M  CHG  1  11  -1
M  END
$$$$
=
     RDKit          3D

 20 21  0  0  0  0  0  0  0  0999 V2000
   19.2000   17.0250    3.8910 C   0  0  0  0  0  0  0  0  0  0  0  0
   18.6490   15.8480    3.3490 C   0  0  0  0  0  0  0  0  0  0  0  0
   17.5860   15.1910    3.9860 C   0  0  0  0  0  0  0  0  0  0  0  0
   17.0640   15.7120    5.1790 C   0  0  0  0  0  0  0  0  0  0  0  0
   17.6040   16.8790    5.7250 C   0  0  0  0  0  0  0  0  0  0  0  0
   18.6590   17.5230    5.0840 C   0  0  0  0  0  0  0  0  0  0  0  0
   17.0400   14.0100    3.4360 N   0  0  0  0  0  0  0  0  0  0  0  0
   15.7290   13.6870    3.1820 C   0  0  0  0  0  0  0  0  0  0  0  0
   15.6670   12.4800    2.6650 N   0  0  0  0  0  0  0  0  0  0  0  0
   16.9620   12.0410    2.5950 N   0  0  0  0  0  0  0  0  0  0  0  0
   17.8020   12.9550    3.0580 N   0  0  0  0  0  0  0  0  0  0  0  0
   21.3310   18.0790    3.9030 O   0  0  0  0  0  1  0  0  0  0  0  0
   20.3440   17.7190    3.1930 C   0  0  0  0  0  0  0  0  0  0  0  0
   20.2100   17.8790    1.9360 O   0  0  0  0  0  0  0  0  0  0  0  0
   19.1400   18.6630    5.6740 O   0  0  0  0  0  0  0  0  0  0  0  0
   19.0577   15.4383    2.4135 H   0  0  0  0  0  0  0  0  0  0  0  0
   16.2303   15.2023    5.6842 H   0  0  0  0  0  0  0  0  0  0  0  0
   17.1960   17.2888    6.6607 H   0  0  0  0  0  0  0  0  0  0  0  0
   14.8647   14.3379    3.3806 H   0  0  0  0  0  0  0  0  0  0  0  0
   18.7381   18.9915    6.5170 H   0  0  0  0  0  0  0  0  0  0  0  0
  2  1  2  0
  3  2  1  0
  4  3  2  0
  5  4  1  0
  6  1  1  0
  6  5  2  0
  7  3  1  0
  8  7  1  0
  9  8  2  0
 10  9  1  0
 11 10  2  0
 11  7  1  0
 13 12  1  0
 13  1  1  0
 14 13  2  0
 15  6  1  0
  2 16  1  0
  4 17  1  0
  5 18  1  0
  8 19  1  0
 15 20  1  0
M  CHG  1  12  -1
M  END
$$$$
=
     RDKit          3D

 19 19  0  0  0  0  0  0  0  0999 V2000
   17.3210   15.2760    3.9470 C   0  0  0  0  0  0  0  0  0  0  0  0
   16.6900   16.0770    4.9030 C   0  0  0  0  0  0  0  0  0  0  0  0
   15.3960   15.7770    5.3150 C   0  0  0  0  0  0  0  0  0  0  0  0
   14.7460   14.6770    4.7690 C   0  0  0  0  0  0  0  0  0  0  0  0
   15.4100   13.9040    3.8190 C   0  0  0  0  0  0  0  0  0  0  0  0
   16.6730   14.1910    3.4130 N   0  0  0  0  0  0  0  0  0  0  0  0
   14.6950   12.7020    3.2240 C   0  0  0  0  0  0  0  0  0  0  0  0
   15.2220   12.3490    2.0050 F   0  0  0  0  0  0  0  0  0  0  0  0
   14.8580   11.5780    3.9970 F   0  0  0  0  0  0  0  0  0  0  0  0
   13.2000   12.8980    3.0260 C   0  0  0  0  0  0  0  0  0  0  0  0
   18.9820   16.8100    3.0760 O   0  0  0  0  0  1  0  0  0  0  0  0
   18.7590   15.6320    3.5070 C   0  0  0  0  0  0  0  0  0  0  0  0
   19.6390   14.7110    3.6060 O   0  0  0  0  0  0  0  0  0  0  0  0
   17.2164   16.9438    5.3291 H   0  0  0  0  0  0  0  0  0  0  0  0
   14.8923   16.4041    6.0654 H   0  0  0  0  0  0  0  0  0  0  0  0
   13.7231   14.4205    5.0819 H   0  0  0  0  0  0  0  0  0  0  0  0
   12.7057   12.9628    4.0065 H   0  0  0  0  0  0  0  0  0  0  0  0
   13.0232   13.8270    2.4641 H   0  0  0  0  0  0  0  0  0  0  0  0
   12.7897   12.0460    2.4641 H   0  0  0  0  0  0  0  0  0  0  0  0
  2  1  2  0
  3  2  1  0
  4  3  2  0
  5  4  1  0
  6  5  2  0
  6  1  1  0
  7  5  1  0
  8  7  1  0
  9  7  1  0
 10  7  1  0
 12  1  1  0
 12 11  1  0
 13 12  2  0
  2 14  1  0
  3 15  1  0
  4 16  1  0
 10 17  1  0
 10 18  1  0
 10 19  1  0
M  CHG  1  11  -1
M  END
$$$$
=
     RDKit          3D

 49 52  0  0  0  0  0  0  0  0999 V2000
   12.6750   13.3350    3.5500 C   0  0  0  0  0  0  0  0  0  0  0  0
   11.8470   14.2210    4.2370 C   0  0  0  0  0  0  0  0  0  0  0  0
   10.4590   14.1940    4.0580 C   0  0  0  0  0  0  0  0  0  0  0  0
    9.8660   13.2690    3.1870 C   0  0  0  0  0  0  0  0  0  0  0  0
   10.7080   12.3820    2.5150 C   0  0  0  0  0  0  0  0  0  0  0  0
   12.0970   12.4070    2.6900 C   0  0  0  0  0  0  0  0  0  0  0  0
   10.2340   11.4420    1.6390 O   0  0  0  0  0  0  0  0  0  0  0  0
    8.8760   11.3840    1.3730 C   0  0  0  0  0  0  0  0  0  0  0  0
    7.9430   12.3100    2.0410 C   0  0  0  0  0  0  0  0  0  0  0  0
    8.3980   13.2220    2.9460 C   0  0  0  0  0  0  0  0  0  0  0  0
    6.5200   12.1990    1.6810 C   0  0  0  0  0  0  0  0  0  0  0  0
    6.0770   11.2850    0.8090 C   0  0  0  0  0  0  0  0  0  0  0  0
    7.0140   10.3420    0.1630 C   0  0  0  0  0  0  0  0  0  0  0  0
    6.6090    9.4930   -0.6220 O   0  0  0  0  0  0  0  0  0  0  0  0
    8.4450   10.4640    0.5000 C   0  0  0  0  0  0  0  0  0  0  0  0
    7.4490   14.1510    3.6270 C   0  0  0  0  0  0  0  0  0  0  0  0
    7.0860   15.3380    2.9650 C   0  0  0  0  0  0  0  0  0  0  0  0
    6.2160   16.2550    3.5610 C   0  0  0  0  0  0  0  0  0  0  0  0
    5.7110   16.0120    4.8370 C   0  0  0  0  0  0  0  0  0  0  0  0
    6.0770   14.8550    5.5220 C   0  0  0  0  0  0  0  0  0  0  0  0
    6.9320   13.9210    4.9160 C   0  0  0  0  0  0  0  0  0  0  0  0
    7.3570   12.7730    5.7440 C   0  0  0  0  0  0  0  0  0  0  0  0
    8.3030   12.9600    6.5040 O   0  0  0  0  0  0  0  0  0  0  0  0
    6.6640   11.5710    5.6500 N   0  0  0  0  0  0  0  0  0  0  0  0
    5.3240   11.4290    5.1070 C   0  0  0  0  0  0  0  0  0  0  0  0
    7.1930   10.4220    6.3660 C   0  0  0  0  0  0  0  0  0  0  0  0
   14.0100   13.4770    3.8050 O   0  0  0  0  0  0  0  0  0  0  0  0
   14.8630   12.3810    3.4350 C   0  0  0  0  0  0  0  0  0  0  0  0
   16.9790   12.0680    2.3930 O   0  0  0  0  0  1  0  0  0  0  0  0
   16.2180   12.9210    2.9390 C   0  0  0  0  0  0  0  0  0  0  0  0
   16.4410   14.1440    3.1860 O   0  0  0  0  0  0  0  0  0  0  0  0
   12.2904   14.9516    4.9295 H   0  0  0  0  0  0  0  0  0  0  0  0
    9.8261   14.9068    4.6070 H   0  0  0  0  0  0  0  0  0  0  0  0
   12.7320   11.6918    2.1466 H   0  0  0  0  0  0  0  0  0  0  0  0
    5.7981   12.8886    2.1429 H   0  0  0  0  0  0  0  0  0  0  0  0
    5.0043   11.2352    0.5707 H   0  0  0  0  0  0  0  0  0  0  0  0
    9.1712    9.7873    0.0259 H   0  0  0  0  0  0  0  0  0  0  0  0
    7.4925   15.5472    1.9645 H   0  0  0  0  0  0  0  0  0  0  0  0
    5.9293   17.1701    3.0221 H   0  0  0  0  0  0  0  0  0  0  0  0
    5.0237   16.7333    5.3033 H   0  0  0  0  0  0  0  0  0  0  0  0
    5.6959   14.6735    6.5378 H   0  0  0  0  0  0  0  0  0  0  0  0
    4.6003   11.3523    5.9319 H   0  0  0  0  0  0  0  0  0  0  0  0
    5.0839   12.3067    4.4890 H   0  0  0  0  0  0  0  0  0  0  0  0
    5.2732   10.5204    4.4890 H   0  0  0  0  0  0  0  0  0  0  0  0
    7.1128   10.5962    7.4492 H   0  0  0  0  0  0  0  0  0  0  0  0
    6.6174    9.5245    6.0954 H   0  0  0  0  0  0  0  0  0  0  0  0
    8.2491   10.2757    6.0954 H   0  0  0  0  0  0  0  0  0  0  0  0
   15.0255   11.7331    4.3090 H   0  0  0  0  0  0  0  0  0  0  0  0
   14.3849   11.8033    2.6303 H   0  0  0  0  0  0  0  0  0  0  0  0
  2  1  2  0
  3  2  1  0
  4  3  2  0
  5  4  1  0
  6  5  2  0
  6  1  1  0
  7  5  1  0
  8  7  1  0
  9  8  1  0
 10  9  2  0
 10  4  1  0
 11  9  1  0
 12 11  2  0
 13 12  1  0
 14 13  2  0
 15 13  1  0
 15  8  2  0
 16 10  1  0
 17 16  2  0
 18 17  1  0
 19 18  2  0
 20 19  1  0
 21 16  1  0
 21 20  2  0
 22 21  1  0
 23 22  2  0
 24 22  1  0
 25 24  1  0
 26 24  1  0
 27  1  1  0
 28 27  1  0
 30 28  1  0
 30 29  1  0
 31 30  2  0
  2 32  1  0
  3 33  1  0
  6 34  1  0
 11 35  1  0
 12 36  1  0
 15 37  1  0
 17 38  1  0
 18 39  1  0
 19 40  1  0
 20 41  1  0
 25 42  1  0
 25 43  1  0
 25 44  1  0
 26 45  1  0
 26 46  1  0
 26 47  1  0
 28 48  1  0
 28 49  1  0
M  CHG  1  29  -1
M  END
$$$$
=
     RDKit          3D

 41 42  0  0  0  0  0  0  0  0999 V2000
   12.2970   13.5850    3.6290 C   0  0  0  0  0  0  0  0  0  0  0  0
   11.4850   14.1000    4.5880 N   0  0  0  0  0  0  0  0  0  0  0  0
   10.1670   13.8170    4.5870 C   0  0  0  0  0  0  0  0  0  0  0  0
    9.6160   13.0070    3.5990 C   0  0  0  0  0  0  0  0  0  0  0  0
   10.4310   12.4680    2.6000 C   0  0  0  0  0  0  0  0  0  0  0  0
   11.7980   12.7570    2.6300 C   0  0  0  0  0  0  0  0  0  0  0  0
   16.4850   14.6300    3.8950 C   0  0  0  0  0  0  0  0  0  0  0  0
   15.5330   15.3720    4.5850 C   0  0  0  0  0  0  0  0  0  0  0  0
   14.1740   15.0330    4.5080 C   0  0  0  0  0  0  0  0  0  0  0  0
   13.7270   13.9450    3.7360 C   0  0  0  0  0  0  0  0  0  0  0  0
   14.7070   13.1980    3.0620 C   0  0  0  0  0  0  0  0  0  0  0  0
   16.0620   13.5380    3.1370 C   0  0  0  0  0  0  0  0  0  0  0  0
   17.8320   14.8500    3.8660 O   0  0  0  0  0  0  0  0  0  0  0  0
   18.4180   15.7890    4.7910 C   0  0  2  0  0  0  0  0  0  0  0  0
   18.7760   17.0780    4.0610 C   0  0  0  0  0  0  0  0  0  0  0  0
   20.7620   15.3520    4.7550 O   0  0  0  0  0  1  0  0  0  0  0  0
   19.6940   15.1400    5.4070 C   0  0  0  0  0  0  0  0  0  0  0  0
   19.5360   14.4450    6.4530 O   0  0  0  0  0  0  0  0  0  0  0  0
    9.8510   11.5700    1.5470 C   0  0  0  0  0  0  0  0  0  0  0  0
    9.7080   12.1770    0.3360 F   0  0  0  0  0  0  0  0  0  0  0  0
   10.6220   10.4700    1.3240 F   0  0  0  0  0  0  0  0  0  0  0  0
    8.6160   11.0960    1.8710 F   0  0  0  0  0  0  0  0  0  0  0  0
    9.3230   14.3610    5.5820 N   0  0  0  0  0  0  0  0  0  0  0  0
    7.9120   14.2440    5.2130 C   0  0  0  0  0  0  0  0  0  0  0  0
    9.6290   13.8270    6.9130 C   0  0  0  0  0  0  0  0  0  0  0  0
    8.5375   12.7906    3.6043 H   0  0  0  0  0  0  0  0  0  0  0  0
   12.4722   12.3336    1.8709 H   0  0  0  0  0  0  0  0  0  0  0  0
   15.8477   16.2311    5.1957 H   0  0  0  0  0  0  0  0  0  0  0  0
   13.4393   15.6329    5.0652 H   0  0  0  0  0  0  0  0  0  0  0  0
   14.4027   12.3273    2.4626 H   0  0  0  0  0  0  0  0  0  0  0  0
   16.8036   12.9363    2.5911 H   0  0  0  0  0  0  0  0  0  0  0  0
   17.7037   16.0335    5.5910 H   0  0  0  0  0  0  0  0  0  0  0  0
   18.9951   17.8668    4.7957 H   0  0  0  0  0  0  0  0  0  0  0  0
   19.6611   16.9085    3.4302 H   0  0  0  0  0  0  0  0  0  0  0  0
   17.9303   17.3892    3.4302 H   0  0  0  0  0  0  0  0  0  0  0  0
    7.2977   14.1931    6.1241 H   0  0  0  0  0  0  0  0  0  0  0  0
    7.6145   15.1206    4.6187 H   0  0  0  0  0  0  0  0  0  0  0  0
    7.7629   13.3304    4.6187 H   0  0  0  0  0  0  0  0  0  0  0  0
    9.2375   14.5102    7.6811 H   0  0  0  0  0  0  0  0  0  0  0  0
    9.1603   12.8386    7.0282 H   0  0  0  0  0  0  0  0  0  0  0  0
   10.7188   13.7317    7.0282 H   0  0  0  0  0  0  0  0  0  0  0  0
  2  1  2  0
  3  2  1  0
  4  3  2  0
  5  4  1  0
  6  5  2  0
  6  1  1  0
  8  7  2  0
  9  8  1  0
 10  9  2  0
 10  1  1  0
 11 10  1  0
 12 11  2  0
 12  7  1  0
 13  7  1  0
 14 13  1  0
 15 14  1  0
 17 16  1  0
 17 14  1  0
 18 17  2  0
 19  5  1  0
 20 19  1  0
 21 19  1  0
 22 19  1  0
 23  3  1  0
 24 23  1  0
 25 23  1  0
  4 26  1  0
  6 27  1  0
  8 28  1  0
  9 29  1  0
 11 30  1  0
 12 31  1  0
 14 32  1  1
 15 33  1  0
 15 34  1  0
 15 35  1  0
 24 36  1  0
 24 37  1  0
 24 38  1  0
 25 39  1  0
 25 40  1  0
 25 41  1  0
M  CHG  1  16  -1
M  END
$$$$
=
     RDKit          3D

 44 47  0  0  0  0  0  0  0  0999 V2000
   28.5770   24.6790   12.7320 C   0  0  1  0  0  0  0  0  0  0  0  0
   28.3330   23.7470   11.5500 C   0  0  0  0  0  0  0  0  0  0  0  0
   26.9330   23.1650   11.5790 C   0  0  0  0  0  0  0  0  0  0  0  0
   25.8310   24.1850   11.7790 C   0  0  0  0  0  0  0  0  0  0  0  0
   24.7120   23.9540   11.3080 O   0  0  0  0  0  0  0  0  0  0  0  0
   26.1120   25.3210   12.5310 N   0  0  0  0  0  0  0  0  0  0  0  0
   27.5050   25.7700   12.7370 C   0  0  1  0  0  0  0  0  0  0  0  0
   27.7170   26.8200   13.8290 C   0  0  0  0  0  0  0  0  0  0  0  0
   28.0020   28.1690   13.5190 C   0  0  0  0  0  0  0  0  0  0  0  0
   28.2070   29.1250   14.5210 C   0  0  0  0  0  0  0  0  0  0  0  0
   28.1160   28.7100   15.8290 C   0  0  0  0  0  0  0  0  0  0  0  0
   27.8320   27.4050   16.1510 C   0  0  0  0  0  0  0  0  0  0  0  0
   27.6270   26.4420   15.1830 C   0  0  0  0  0  0  0  0  0  0  0  0
   27.7870   27.1990   17.4960 O   0  0  0  0  0  0  0  0  0  0  0  0
   28.0430   28.5350   17.9770 C   0  0  0  0  0  0  0  0  0  0  0  0
   28.2860   29.4920   16.9290 O   0  0  0  0  0  0  0  0  0  0  0  0
   29.9620   23.5540   14.2670 O   0  0  0  0  0  1  0  0  0  0  0  0
   28.7560   23.7910   13.9670 C   0  0  0  0  0  0  0  0  0  0  0  0
   27.7050   23.3650   14.5170 O   0  0  0  0  0  0  0  0  0  0  0  0
   25.0280   26.2940   12.6940 C   0  0  0  0  0  0  0  0  0  0  0  0
   24.1610   26.0850   13.9170 C   0  0  0  0  0  0  0  0  0  0  0  0
   24.2630   26.9740   15.0000 C   0  0  0  0  0  0  0  0  0  0  0  0
   23.4570   26.8180   16.1290 C   0  0  0  0  0  0  0  0  0  0  0  0
   22.5320   25.7780   16.1880 C   0  0  0  0  0  0  0  0  0  0  0  0
   22.4110   24.8950   15.1160 C   0  0  0  0  0  0  0  0  0  0  0  0
   23.2150   25.0530   13.9850 C   0  0  0  0  0  0  0  0  0  0  0  0
   29.5019   25.2729   12.6891 H   0  0  0  0  0  0  0  0  0  0  0  0
   28.4654   24.3126   10.6159 H   0  0  0  0  0  0  0  0  0  0  0  0
   29.0524   22.9171   11.6114 H   0  0  0  0  0  0  0  0  0  0  0  0
   26.7552   22.6506   10.6231 H   0  0  0  0  0  0  0  0  0  0  0  0
   26.8938   22.4891   12.4460 H   0  0  0  0  0  0  0  0  0  0  0  0
   27.6747   26.3145   11.7964 H   0  0  0  0  0  0  0  0  0  0  0  0
   28.0643   28.4754   12.4644 H   0  0  0  0  0  0  0  0  0  0  0  0
   28.4331   30.1720   14.2707 H   0  0  0  0  0  0  0  0  0  0  0  0
   27.3985   25.4030   15.4628 H   0  0  0  0  0  0  0  0  0  0  0  0
   27.1693   28.8688   18.5560 H   0  0  0  0  0  0  0  0  0  0  0  0
   28.9576   28.4870   18.5862 H   0  0  0  0  0  0  0  0  0  0  0  0
   25.4760   27.2964   12.7603 H   0  0  0  0  0  0  0  0  0  0  0  0
   24.3677   26.1682   11.8233 H   0  0  0  0  0  0  0  0  0  0  0  0
   24.9859   27.8020   14.9579 H   0  0  0  0  0  0  0  0  0  0  0  0
   23.5524   27.5170   16.9730 H   0  0  0  0  0  0  0  0  0  0  0  0
   21.8984   25.6538   17.0786 H   0  0  0  0  0  0  0  0  0  0  0  0
   21.6815   24.0729   15.1610 H   0  0  0  0  0  0  0  0  0  0  0  0
   23.1046   24.3598   13.1381 H   0  0  0  0  0  0  0  0  0  0  0  0
  2  1  1  0
  3  2  1  0
  4  3  1  0
  5  4  2  0
  6  4  1  0
  7  6  1  0
  7  1  1  0
  8  7  1  0
  9  8  2  0
 10  9  1  0
 11 10  2  0
 12 11  1  0
 13  8  1  0
 13 12  2  0
 14 12  1  0
 15 14  1  0
 16 11  1  0
 16 15  1  0
 18 17  1  0
 18  1  1  0
 19 18  2  0
 20  6  1  0
 21 20  1  0
 22 21  2  0
 23 22  1  0
 24 23  2  0
 25 24  1  0
 26 25  2  0
 26 21  1  0
  1 27  1  6
  2 28  1  0
  2 29  1  0
  3 30  1  0
  3 31  1  0
  7 32  1  6
  9 33  1  0
 10 34  1  0
 13 35  1  0
 15 36  1  0
 15 37  1  0
 20 38  1  0
 20 39  1  0
 22 40  1  0
 23 41  1  0
 24 42  1  0
 25 43  1  0
 26 44  1  0
M  CHG  1  17  -1
M  END
$$$$
=
     RDKit          3D

 32 33  0  0  0  0  0  0  0  0999 V2000
   25.7580   26.5080   15.7290 C   0  0  0  0  0  0  0  0  0  0  0  0
   26.7070   26.9270   16.5890 C   0  0  0  0  0  0  0  0  0  0  0  0
   28.1380   26.6300   16.4770 C   0  0  0  0  0  0  0  0  0  0  0  0
   28.5370   25.3010   16.6840 C   0  0  0  0  0  0  0  0  0  0  0  0
   29.8760   24.9190   16.5390 C   0  0  0  0  0  0  0  0  0  0  0  0
   30.8410   25.8610   16.1820 C   0  0  0  0  0  0  0  0  0  0  0  0
   30.4710   27.1890   15.9790 C   0  0  0  0  0  0  0  0  0  0  0  0
   29.1250   27.5610   16.1330 C   0  0  0  0  0  0  0  0  0  0  0  0
   28.8010   28.9650   15.9550 N   0  0  0  0  0  4  0  0  0  0  0  0
   28.5690   29.3570   14.8020 O   0  0  0  0  0  0  0  0  0  0  0  0
   28.6700   29.6470   16.9830 O   0  0  0  0  0  1  0  0  0  0  0  0
   26.0420   25.7180   14.5250 C   0  0  0  0  0  0  0  0  0  0  0  0
   26.6510   26.3190   13.4150 C   0  0  0  0  0  0  0  0  0  0  0  0
   26.9600   25.5660   12.2800 C   0  0  0  0  0  0  0  0  0  0  0  0
   26.6500   24.2000   12.2580 C   0  0  0  0  0  0  0  0  0  0  0  0
   26.0370   23.5880   13.3590 C   0  0  0  0  0  0  0  0  0  0  0  0
   25.7350   24.3520   14.4890 C   0  0  0  0  0  0  0  0  0  0  0  0
   26.9750   23.4000   11.0720 N   0  0  0  0  0  4  0  0  0  0  0  0
   28.0360   23.6440   10.4760 O   0  0  0  0  0  0  0  0  0  0  0  0
   26.1760   22.5130   10.7350 O   0  0  0  0  0  1  0  0  0  0  0  0
   23.8280   26.5100   17.1500 O   0  0  0  0  0  1  0  0  0  0  0  0
   24.2650   26.8350   16.0090 C   0  0  0  0  0  0  0  0  0  0  0  0
   23.6530   27.4040   15.0560 O   0  0  0  0  0  0  0  0  0  0  0  0
   26.3822   27.5403   17.4424 H   0  0  0  0  0  0  0  0  0  0  0  0
   27.7862   24.5476   16.9645 H   0  0  0  0  0  0  0  0  0  0  0  0
   30.1683   23.8720   16.7072 H   0  0  0  0  0  0  0  0  0  0  0  0
   31.8910   25.5563   16.0611 H   0  0  0  0  0  0  0  0  0  0  0  0
   31.2258   27.9392   15.7007 H   0  0  0  0  0  0  0  0  0  0  0  0
   26.8877   27.3930   13.4379 H   0  0  0  0  0  0  0  0  0  0  0  0
   27.4417   26.0406   11.4124 H   0  0  0  0  0  0  0  0  0  0  0  0
   25.7955   22.5151   13.3340 H   0  0  0  0  0  0  0  0  0  0  0  0
   25.2528   23.8774   15.3563 H   0  0  0  0  0  0  0  0  0  0  0  0
  2  1  2  0
  3  2  1  0
  4  3  2  0
  5  4  1  0
  6  5  2  0
  7  6  1  0
  8  7  2  0
  8  3  1  0
  9  8  1  0
 10  9  2  0
 11  9  1  0
 12  1  1  0
 13 12  2  0
 14 13  1  0
 15 14  2  0
 16 15  1  0
 17 16  2  0
 17 12  1  0
 18 15  1  0
 19 18  2  0
 20 18  1  0
 22  1  1  0
 22 21  1  0
 23 22  2  0
  2 24  1  0
  4 25  1  0
  5 26  1  0
  6 27  1  0
  7 28  1  0
 13 29  1  0
 14 30  1  0
 16 31  1  0
 17 32  1  0
M  CHG  5   9   1  11  -1  18   1  20  -1  21  -1
M  END
$$$$
=
     RDKit          3D

 38 41  0  0  0  0  0  0  0  0999 V2000
   25.6000   26.2420   13.4080 C   0  0  1  0  0  0  0  0  0  0  0  0
   25.8380   24.9850   12.5580 C   0  0  0  0  0  0  0  0  0  0  0  0
   24.2130   24.1980   12.3570 S   0  0  0  0  0  0  0  0  0  0  0  0
   23.6220   24.8860   13.8790 C   0  0  0  0  0  0  0  0  0  0  0  0
   24.4470   25.9060   14.3360 C   0  0  0  0  0  0  0  0  0  0  0  0
   24.2680   26.6070   15.4860 N   0  0  0  0  0  0  0  0  0  0  0  0
   23.1930   26.2780   16.2230 C   0  0  0  0  0  0  0  0  0  0  0  0
   22.9740   26.9770   17.4030 C   0  0  0  0  0  0  0  0  0  0  0  0
   21.8850   26.7070   18.2350 C   0  0  0  0  0  0  0  0  0  0  0  0
   20.9850   25.7110   17.8830 C   0  0  0  0  0  0  0  0  0  0  0  0
   21.1810   24.9930   16.7040 C   0  0  0  0  0  0  0  0  0  0  0  0
   22.2780   25.2570   15.8530 C   0  0  0  0  0  0  0  0  0  0  0  0
   22.5160   24.5480   14.6450 C   0  0  0  0  0  0  0  0  0  0  0  0
   27.9560   27.4100   12.3750 O   0  0  0  0  0  0  0  0  0  0  0  0
   27.8390   27.2760   13.5880 C   0  0  0  0  0  0  0  0  0  0  0  0
   26.7630   26.6600   14.1780 N   0  0  0  0  0  0  0  0  0  0  0  0
   28.8770   27.8180   14.5110 C   0  0  0  0  0  0  0  0  0  0  0  0
   28.9800   29.1870   14.7950 C   0  0  0  0  0  0  0  0  0  0  0  0
   29.9680   29.6470   15.6690 C   0  0  0  0  0  0  0  0  0  0  0  0
   30.8500   28.7450   16.2660 C   0  0  0  0  0  0  0  0  0  0  0  0
   30.7430   27.3810   15.9980 C   0  0  0  0  0  0  0  0  0  0  0  0
   29.7560   26.9180   15.1250 C   0  0  0  0  0  0  0  0  0  0  0  0
   21.6040   23.4520   14.2180 C   0  0  0  0  0  0  0  0  0  0  0  0
   21.8380   22.3020   14.7000 O   0  0  0  0  0  0  0  0  0  0  0  0
   20.7140   23.7570   13.3660 O   0  0  0  0  0  1  0  0  0  0  0  0
   25.3809   27.0921   12.7452 H   0  0  0  0  0  0  0  0  0  0  0  0
   26.2528   25.2603   11.5771 H   0  0  0  0  0  0  0  0  0  0  0  0
   26.5572   24.3052   13.0383 H   0  0  0  0  0  0  0  0  0  0  0  0
   23.6809   27.7688   17.6917 H   0  0  0  0  0  0  0  0  0  0  0  0
   21.7417   27.2800   19.1630 H   0  0  0  0  0  0  0  0  0  0  0  0
   20.1231   25.4896   18.5296 H   0  0  0  0  0  0  0  0  0  0  0  0
   20.4658   24.2034   16.4301 H   0  0  0  0  0  0  0  0  0  0  0  0
   26.7790   26.4888   15.1936 H   0  0  0  0  0  0  0  0  0  0  0  0
   28.2827   29.8991   14.3295 H   0  0  0  0  0  0  0  0  0  0  0  0
   30.0510   30.7220   15.8870 H   0  0  0  0  0  0  0  0  0  0  0  0
   31.6308   29.1108   16.9490 H   0  0  0  0  0  0  0  0  0  0  0  0
   31.4350   26.6704   16.4735 H   0  0  0  0  0  0  0  0  0  0  0  0
   29.6689   25.8410   14.9189 H   0  0  0  0  0  0  0  0  0  0  0  0
  2  1  1  0
  3  2  1  0
  4  3  1  0
  5  4  2  0
  5  1  1  0
  6  5  1  0
  7  6  2  0
  8  7  1  0
  9  8  2  0
 10  9  1  0
 11 10  2  0
 12 11  1  0
 12  7  1  0
 13 12  2  0
 13  4  1  0
 15 14  2  0
 16  1  1  0
 16 15  1  0
 17 15  1  0
 18 17  2  0
 19 18  1  0
 20 19  2  0
 21 20  1  0
 22 21  2  0
 22 17  1  0
 23 13  1  0
 24 23  2  0
 25 23  1  0
  1 26  1  6
  2 27  1  0
  2 28  1  0
  8 29  1  0
  9 30  1  0
 10 31  1  0
 11 32  1  0
 16 33  1  0
 18 34  1  0
 19 35  1  0
 20 36  1  0
 21 37  1  0
 22 38  1  0
M  CHG  1  25  -1
M  END
$$$$
=
     RDKit          3D

 34 35  0  0  0  0  0  0  0  0999 V2000
   16.6330   16.0230    5.9540 C   0  0  0  0  0  0  0  0  0  0  0  0
   17.8240   16.9380    5.7700 C   0  0  0  0  0  0  0  0  0  0  0  0
   17.7220   18.2560    6.2600 C   0  0  0  0  0  0  0  0  0  0  0  0
   18.7820   19.1540    6.1450 C   0  0  0  0  0  0  0  0  0  0  0  0
   19.9650   18.7510    5.5400 C   0  0  0  0  0  0  0  0  0  0  0  0
   20.0790   17.4520    5.0420 C   0  0  0  0  0  0  0  0  0  0  0  0
   19.0190   16.5240    5.1350 C   0  0  0  0  0  0  0  0  0  0  0  0
   19.2400   15.1370    4.5440 C   0  0  0  0  0  0  0  0  0  0  0  0
   19.3150   15.0270    3.2800 O   0  0  0  0  0  0  0  0  0  0  0  0
   19.3610   14.1770    5.3710 O   0  0  0  0  0  1  0  0  0  0  0  0
   15.4960   16.3600    4.9820 C   0  0  0  0  0  0  0  0  0  0  0  0
   15.2880   13.0560    3.1000 C   0  0  0  0  0  0  0  0  0  0  0  0
   13.9160   12.8000    3.1490 C   0  0  0  0  0  0  0  0  0  0  0  0
   13.0490   13.6870    3.7880 C   0  0  0  0  0  0  0  0  0  0  0  0
   13.5480   14.8450    4.3840 C   0  0  0  0  0  0  0  0  0  0  0  0
   14.9180   15.1210    4.3380 C   0  0  0  0  0  0  0  0  0  0  0  0
   15.7820   14.2190    3.6930 C   0  0  0  0  0  0  0  0  0  0  0  0
   17.4380   12.1440    2.7040 C   0  0  0  0  0  0  0  0  0  0  0  0
   16.0350   12.1080    2.4540 O   0  0  0  0  0  0  0  0  0  0  0  0
   16.9524   14.9847    5.7810 H   0  0  0  0  0  0  0  0  0  0  0  0
   16.2559   16.1570    6.9786 H   0  0  0  0  0  0  0  0  0  0  0  0
   16.7885   18.5818    6.7421 H   0  0  0  0  0  0  0  0  0  0  0  0
   18.6816   20.1786    6.5323 H   0  0  0  0  0  0  0  0  0  0  0  0
   20.8083   19.4520    5.4536 H   0  0  0  0  0  0  0  0  0  0  0  0
   21.0203   17.1429    4.5641 H   0  0  0  0  0  0  0  0  0  0  0  0
   14.6984   16.8787    5.5341 H   0  0  0  0  0  0  0  0  0  0  0  0
   15.9068   16.9977    4.1854 H   0  0  0  0  0  0  0  0  0  0  0  0
   13.5148   11.8899    2.6791 H   0  0  0  0  0  0  0  0  0  0  0  0
   11.9706   13.4727    3.8217 H   0  0  0  0  0  0  0  0  0  0  0  0
   12.8636   15.5415    4.8904 H   0  0  0  0  0  0  0  0  0  0  0  0
   16.8605   14.4323    3.6552 H   0  0  0  0  0  0  0  0  0  0  0  0
   17.6170   12.1486    3.7893 H   0  0  0  0  0  0  0  0  0  0  0  0
   17.9128   11.2577    2.2578 H   0  0  0  0  0  0  0  0  0  0  0  0
   17.8667   13.0534    2.2578 H   0  0  0  0  0  0  0  0  0  0  0  0
  2  1  1  0
  3  2  2  0
  4  3  1  0
  5  4  2  0
  6  5  1  0
  7  6  2  0
  7  2  1  0
  8  7  1  0
  9  8  2  0
 10  8  1  0
 11  1  1  0
 13 12  2  0
 14 13  1  0
 15 14  2  0
 16 15  1  0
 16 11  1  0
 17 16  2  0
 17 12  1  0
 19 12  1  0
 19 18  1  0
  1 20  1  0
  1 21  1  0
  3 22  1  0
  4 23  1  0
  5 24  1  0
  6 25  1  0
 11 26  1  0
 11 27  1  0
 13 28  1  0
 14 29  1  0
 15 30  1  0
 17 31  1  0
 18 32  1  0
 18 33  1  0
 18 34  1  0
M  CHG  1  10  -1
M  END
$$$$
=
     RDKit          3D

 25 25  0  0  0  0  0  0  0  0999 V2000
   17.1780   16.1030    5.7240 C   0  0  0  0  0  0  0  0  0  0  0  0
   17.5250   17.3290    5.3900 N   0  0  0  0  0  0  0  0  0  0  0  0
   18.9040   17.3100    5.4820 C   0  0  0  0  0  0  0  0  0  0  0  0
   19.3360   16.0540    5.8680 C   0  0  0  0  0  0  0  0  0  0  0  0
   18.2160   15.2710    6.0200 O   0  0  0  0  0  0  0  0  0  0  0  0
   19.6990   18.5210    5.1880 C   0  0  0  0  0  0  0  0  0  0  0  0
   20.8240   15.5910    6.0940 C   0  0  0  0  0  0  0  0  0  0  0  0
   21.1940   15.4390    7.2980 O   0  0  0  0  0  0  0  0  0  0  0  0
   21.5320   15.4080    5.0550 O   0  0  0  0  0  1  0  0  0  0  0  0
   15.8190   15.5130    5.8060 C   0  0  0  0  0  0  0  0  0  0  0  0
   13.7250   14.7380    4.5680 C   0  0  0  0  0  0  0  0  0  0  0  0
   15.0800   15.4410    4.4580 C   0  0  0  0  0  0  0  0  0  0  0  0
   15.9270   14.8020    3.3560 C   0  0  0  0  0  0  0  0  0  0  0  0
   20.0094   18.9938    6.1314 H   0  0  0  0  0  0  0  0  0  0  0  0
   20.5904   18.2423    4.6069 H   0  0  0  0  0  0  0  0  0  0  0  0
   19.0888   19.2281    4.6069 H   0  0  0  0  0  0  0  0  0  0  0  0
   15.9098   14.4918    6.2046 H   0  0  0  0  0  0  0  0  0  0  0  0
   15.2265   16.1733    6.4563 H   0  0  0  0  0  0  0  0  0  0  0  0
   13.4665   14.6039    5.6288 H   0  0  0  0  0  0  0  0  0  0  0  0
   12.9537   15.3496    4.0771 H   0  0  0  0  0  0  0  0  0  0  0  0
   13.7809   13.7552    4.0771 H   0  0  0  0  0  0  0  0  0  0  0  0
   14.8930   16.4865    4.1716 H   0  0  0  0  0  0  0  0  0  0  0  0
   16.7264   14.1989    3.8112 H   0  0  0  0  0  0  0  0  0  0  0  0
   15.2909   14.1568    2.7322 H   0  0  0  0  0  0  0  0  0  0  0  0
   16.3727   15.5908    2.7322 H   0  0  0  0  0  0  0  0  0  0  0  0
  2  1  2  0
  3  2  1  0
  4  3  2  0
  5  4  1  0
  5  1  1  0
  6  3  1  0
  7  4  1  0
  8  7  2  0
  9  7  1  0
 10  1  1  0
 12 11  1  0
 12 10  1  0
 13 12  1  0
  6 14  1  0
  6 15  1  0
  6 16  1  0
 10 17  1  0
 10 18  1  0
 11 19  1  0
 11 20  1  0
 11 21  1  0
 12 22  1  0
 13 23  1  0
 13 24  1  0
 13 25  1  0
M  CHG  1   9  -1
M  END
$$$$
=
     RDKit          3D

 15 15  0  0  0  0  0  0  0  0999 V2000
   14.4520   13.6970    3.6560 C   0  0  0  0  0  0  0  0  0  0  0  0
   14.6810   12.4800    3.0270 C   0  0  0  0  0  0  0  0  0  0  0  0
   15.8980   12.0470    2.6220 N   0  0  0  0  0  0  0  0  0  0  0  0
   16.9410   12.8870    2.8630 C   0  0  0  0  0  0  0  0  0  0  0  0
   16.8270   14.1260    3.4860 C   0  0  0  0  0  0  0  0  0  0  0  0
   15.5450   14.5280    3.8860 C   0  0  0  0  0  0  0  0  0  0  0  0
   18.0360   14.9870    3.7100 C   0  0  0  0  0  0  0  0  0  0  0  0
   19.1590   14.5070    3.3600 O   0  0  0  0  0  0  0  0  0  0  0  0
   17.8430   16.1290    4.2320 O   0  0  0  0  0  1  0  0  0  0  0  0
   12.0300   14.4110    4.3960 C   0  0  0  0  0  0  0  0  0  0  0  0
   13.1350   14.0840    4.0560 C   0  0  0  0  0  0  0  0  0  0  0  0
   13.8163   11.8247    2.8460 H   0  0  0  0  0  0  0  0  0  0  0  0
   17.9429   12.5645    2.5434 H   0  0  0  0  0  0  0  0  0  0  0  0
   15.4027   15.4997    4.3814 H   0  0  0  0  0  0  0  0  0  0  0  0
   11.0183   14.7104    4.7073 H   0  0  0  0  0  0  0  0  0  0  0  0
  2  1  2  0
  3  2  1  0
  4  3  2  0
  5  4  1  0
  6  1  1  0
  6  5  2  0
  7  5  1  0
  8  7  2  0
  9  7  1  0
 11 10  3  0
 11  1  1  0
  2 12  1  0
  4 13  1  0
  6 14  1  0
 10 15  1  0
M  CHG  1   9  -1
M  END
$$$$
=
     RDKit          3D

 42 43  0  0  0  0  0  0  0  0999 V2000
   27.8260   27.7040   15.7060 N   0  0  0  0  0  0  0  0  0  0  0  0
   28.3930   28.3380   17.1740 S   0  0  0  0  0  6  0  0  0  0  0  0
   27.3650   28.1230   18.1720 O   0  0  0  0  0  0  0  0  0  0  0  0
   28.9600   29.6470   16.9430 O   0  0  0  0  0  0  0  0  0  0  0  0
   29.7250   27.2370   17.5980 C   0  0  0  0  0  0  0  0  0  0  0  0
   28.7690   27.7460   14.5530 C   0  0  0  0  0  0  0  0  0  0  0  0
   28.2330   23.1080   11.0580 C   0  0  0  0  0  0  0  0  0  0  0  0
   28.4010   24.3020   11.9480 C   0  0  0  0  0  0  0  0  0  0  0  0
   28.0830   25.5830   11.4840 C   0  0  0  0  0  0  0  0  0  0  0  0
   28.2090   26.6930   12.3230 C   0  0  0  0  0  0  0  0  0  0  0  0
   28.6550   26.5410   13.6430 C   0  0  0  0  0  0  0  0  0  0  0  0
   28.9410   25.2530   14.1150 C   0  0  0  0  0  0  0  0  0  0  0  0
   28.8160   24.1440   13.2750 C   0  0  0  0  0  0  0  0  0  0  0  0
   26.4710   28.2490   15.3290 C   0  0  0  0  0  0  0  0  0  0  0  0
   25.3160   27.2640   15.2450 C   0  0  0  0  0  0  0  0  0  0  0  0
   24.2360   27.4910   16.0080 N   0  0  0  0  0  0  0  0  0  0  0  0
   23.2590   26.5580   15.9320 C   0  0  0  0  0  0  0  0  0  0  0  0
   23.3090   25.4150   15.1540 C   0  0  0  0  0  0  0  0  0  0  0  0
   24.4690   25.2720   14.4080 C   0  0  0  0  0  0  0  0  0  0  0  0
   25.4790   26.1850   14.4510 N   0  0  0  0  0  0  0  0  0  0  0  0
   24.7190   24.1060   13.4980 C   0  0  0  0  0  0  0  0  0  0  0  0
   22.1640   24.4490   15.1830 C   0  0  0  0  0  0  0  0  0  0  0  0
   22.1570   23.5990   16.1280 O   0  0  0  0  0  0  0  0  0  0  0  0
   21.2830   24.5300   14.2720 O   0  0  0  0  0  1  0  0  0  0  0  0
   29.8090   27.1676   18.6926 H   0  0  0  0  0  0  0  0  0  0  0  0
   29.5225   26.2391   17.1818 H   0  0  0  0  0  0  0  0  0  0  0  0
   30.6669   27.6237   17.1818 H   0  0  0  0  0  0  0  0  0  0  0  0
   28.5593   28.6504   13.9630 H   0  0  0  0  0  0  0  0  0  0  0  0
   29.7887   27.7480   14.9655 H   0  0  0  0  0  0  0  0  0  0  0  0
   28.1061   22.2060   11.6747 H   0  0  0  0  0  0  0  0  0  0  0  0
   27.3454   23.2460   10.4230 H   0  0  0  0  0  0  0  0  0  0  0  0
   29.1242   22.9957   10.4230 H   0  0  0  0  0  0  0  0  0  0  0  0
   27.7310   25.7173   10.4505 H   0  0  0  0  0  0  0  0  0  0  0  0
   27.9561   27.6944   11.9445 H   0  0  0  0  0  0  0  0  0  0  0  0
   29.2669   25.1140   15.1564 H   0  0  0  0  0  0  0  0  0  0  0  0
   29.0454   23.1392   13.6594 H   0  0  0  0  0  0  0  0  0  0  0  0
   26.2019   29.0090   16.0773 H   0  0  0  0  0  0  0  0  0  0  0  0
   26.5955   28.6226   14.3019 H   0  0  0  0  0  0  0  0  0  0  0  0
   22.3542   26.7210   16.5360 H   0  0  0  0  0  0  0  0  0  0  0  0
   24.9120   23.2058   14.1000 H   0  0  0  0  0  0  0  0  0  0  0  0
   23.8360   23.9403   12.8633 H   0  0  0  0  0  0  0  0  0  0  0  0
   25.5923   24.3169   12.8633 H   0  0  0  0  0  0  0  0  0  0  0  0
  2  1  1  0
  3  2  2  0
  4  2  2  0
  5  2  1  0
  6  1  1  0
  8  7  1  0
  9  8  2  0
 10  9  1  0
 11 10  2  0
 11  6  1  0
 12 11  1  0
 13 12  2  0
 13  8  1  0
 14  1  1  0
 15 14  1  0
 16 15  2  0
 17 16  1  0
 18 17  2  0
 19 18  1  0
 20 19  2  0
 20 15  1  0
 21 19  1  0
 22 18  1  0
 23 22  2  0
 24 22  1  0
  5 25  1  0
  5 26  1  0
  5 27  1  0
  6 28  1  0
  6 29  1  0
  7 30  1  0
  7 31  1  0
  7 32  1  0
  9 33  1  0
 10 34  1  0
 12 35  1  0
 13 36  1  0
 14 37  1  0
 14 38  1  0
 17 39  1  0
 21 40  1  0
 21 41  1  0
 21 42  1  0
M  CHG  1  24  -1
M  END
$$$$
=
     RDKit          3D

 38 38  0  0  0  0  0  0  0  0999 V2000
   29.0010   27.6410   16.5940 C   0  0  2  0  0  0  0  0  0  0  0  0
   29.8760   28.7020   15.8570 C   0  0  0  0  0  0  0  0  0  0  0  0
   28.9780   29.2300   14.7500 C   0  0  0  0  0  0  0  0  0  0  0  0
   28.2160   27.9940   14.3110 C   0  0  0  0  0  0  0  0  0  0  0  0
   28.1310   27.1400   15.4830 N   0  0  0  0  0  0  0  0  0  0  0  0
   27.0790   26.2690   15.6750 C   0  0  0  0  0  0  0  0  0  0  0  0
   26.8190   25.6700   16.7070 O   0  0  0  0  0  0  0  0  0  0  0  0
   28.2790   28.5100   17.6990 C   0  0  0  0  0  0  0  0  0  0  0  0
   27.4210   29.3420   17.2740 O   0  0  0  0  0  0  0  0  0  0  0  0
   28.5590   28.2170   18.9020 O   0  0  0  0  0  1  0  0  0  0  0  0
   29.9760   26.5900   17.1810 C   0  0  0  0  0  0  0  0  0  0  0  0
   30.8080   24.4270   16.2150 C   0  0  0  0  0  0  0  0  0  0  0  0
   30.8080   25.7660   16.2350 C   0  0  0  0  0  0  0  0  0  0  0  0
   26.3670   26.1000   14.5210 O   0  0  0  0  0  0  0  0  0  0  0  0
   26.4520   24.8640   13.7730 C   0  0  0  0  0  0  0  0  0  0  0  0
   25.2850   23.9250   14.1020 C   0  0  0  0  0  0  0  0  0  0  0  0
   27.8110   24.1820   13.9650 C   0  0  0  0  0  0  0  0  0  0  0  0
   26.3280   25.2950   12.3030 C   0  0  0  0  0  0  0  0  0  0  0  0
   30.1656   29.5119   16.5428 H   0  0  0  0  0  0  0  0  0  0  0  0
   30.8132   28.2762   15.4692 H   0  0  0  0  0  0  0  0  0  0  0  0
   28.2934   30.0022   15.1307 H   0  0  0  0  0  0  0  0  0  0  0  0
   29.5348   29.7098   13.9316 H   0  0  0  0  0  0  0  0  0  0  0  0
   27.2089   28.2687   13.9642 H   0  0  0  0  0  0  0  0  0  0  0  0
   28.7201   27.4846   13.4765 H   0  0  0  0  0  0  0  0  0  0  0  0
   30.6731   27.1281   17.8402 H   0  0  0  0  0  0  0  0  0  0  0  0
   29.3158   25.8550   17.6646 H   0  0  0  0  0  0  0  0  0  0  0  0
   31.4418   23.8877   15.4957 H   0  0  0  0  0  0  0  0  0  0  0  0
   30.1742   23.8664   16.9179 H   0  0  0  0  0  0  0  0  0  0  0  0
   31.4537   26.2946   15.5183 H   0  0  0  0  0  0  0  0  0  0  0  0
   25.1793   23.8400   15.1936 H   0  0  0  0  0  0  0  0  0  0  0  0
   24.3563   24.3305   13.6742 H   0  0  0  0  0  0  0  0  0  0  0  0
   25.4823   22.9310   13.6742 H   0  0  0  0  0  0  0  0  0  0  0  0
   28.0200   24.0771   15.0399 H   0  0  0  0  0  0  0  0  0  0  0  0
   27.7914   23.1870   13.4965 H   0  0  0  0  0  0  0  0  0  0  0  0
   28.5970   24.7924   13.4965 H   0  0  0  0  0  0  0  0  0  0  0  0
   26.0242   26.3511   12.2549 H   0  0  0  0  0  0  0  0  0  0  0  0
   27.2987   25.1695   11.8010 H   0  0  0  0  0  0  0  0  0  0  0  0
   25.5724   24.6729   11.8010 H   0  0  0  0  0  0  0  0  0  0  0  0
  2  1  1  0
  3  2  1  0
  4  3  1  0
  5  4  1  0
  5  1  1  0
  6  5  1  0
  7  6  2  0
  1  8  1  1
  9  8  2  0
 10  8  1  0
 11  1  1  0
 13 12  2  3
 13 11  1  0
 14  6  1  0
 15 14  1  0
 16 15  1  0
 17 15  1  0
 18 15  1  0
  2 19  1  0
  2 20  1  0
  3 21  1  0
  3 22  1  0
  4 23  1  0
  4 24  1  0
 11 25  1  0
 11 26  1  0
 12 27  1  0
 12 28  1  0
 13 29  1  0
 16 30  1  0
 16 31  1  0
 16 32  1  0
 17 33  1  0
 17 34  1  0
 17 35  1  0
 18 36  1  0
 18 37  1  0
 18 38  1  0
M  CHG  1  10  -1
M  END
$$$$
=
     RDKit          3D

 43 44  0  0  0  0  0  0  0  0999 V2000
   17.2320   14.9230    4.2150 C   0  0  0  0  0  0  0  0  0  0  0  0
   17.0180   16.2020    4.7150 C   0  0  0  0  0  0  0  0  0  0  0  0
   15.3620   16.5890    4.7810 S   0  0  0  0  0  0  0  0  0  0  0  0
   14.9010   15.0540    4.2360 C   0  0  0  0  0  0  0  0  0  0  0  0
   15.9790   14.2600    3.8920 C   0  0  0  0  0  0  0  0  0  0  0  0
   15.7940   12.8610    3.3310 C   0  0  2  0  0  0  0  0  0  0  0  0
   16.5530   12.6320    2.0190 C   0  0  0  0  0  0  0  0  0  0  0  0
   14.2970   12.5330    3.0760 C   0  0  0  0  0  0  0  0  0  0  0  0
   13.3600   13.1250    4.1340 C   0  0  0  0  0  0  0  0  0  0  0  0
   13.4650   14.6550    4.1520 C   0  0  0  0  0  0  0  0  0  0  0  0
   17.9650   17.0860    5.2100 N   0  0  0  0  0  0  0  0  0  0  0  0
   18.9150   17.7910    4.4990 C   0  0  0  0  0  0  0  0  0  0  0  0
   19.1720   17.6850    3.3000 O   0  0  0  0  0  0  0  0  0  0  0  0
   19.6730   18.8170    5.3380 C   0  0  0  0  0  0  0  0  0  0  0  0
   21.0510   18.3640    5.8060 C   0  0  0  0  0  0  0  0  0  0  0  0
   22.1010   18.3530    4.7010 C   0  0  0  0  0  0  0  0  0  0  0  0
   22.5740   17.2210    4.4170 O   0  0  0  0  0  0  0  0  0  0  0  0
   22.3920   19.4870    4.2210 O   0  0  0  0  0  1  0  0  0  0  0  0
   18.5560   14.3270    4.0620 C   0  0  0  0  0  0  0  0  0  0  0  0
   19.0760   14.1340    2.9680 O   0  0  0  0  0  0  0  0  0  0  0  0
   19.1670   14.1280    5.2620 O   0  0  0  0  0  0  0  0  0  0  0  0
   20.6860   15.0640    6.8490 C   0  0  0  0  0  0  0  0  0  0  0  0
   20.4560   14.7340    5.3870 C   0  0  0  0  0  0  0  0  0  0  0  0
   16.2057   12.1950    4.1037 H   0  0  0  0  0  0  0  0  0  0  0  0
   17.5843   12.3208    2.2415 H   0  0  0  0  0  0  0  0  0  0  0  0
   16.0502   11.8456    1.4370 H   0  0  0  0  0  0  0  0  0  0  0  0
   16.5691   13.5653    1.4370 H   0  0  0  0  0  0  0  0  0  0  0  0
   14.0133   12.9366    2.0928 H   0  0  0  0  0  0  0  0  0  0  0  0
   14.1902   11.4391    3.1204 H   0  0  0  0  0  0  0  0  0  0  0  0
   12.3242   12.8363    3.9019 H   0  0  0  0  0  0  0  0  0  0  0  0
   13.6504   12.7378    5.1218 H   0  0  0  0  0  0  0  0  0  0  0  0
   13.0241   15.0637    3.2308 H   0  0  0  0  0  0  0  0  0  0  0  0
   12.9231   15.0496    5.0241 H   0  0  0  0  0  0  0  0  0  0  0  0
   17.9586   17.2340    6.2293 H   0  0  0  0  0  0  0  0  0  0  0  0
   19.7985   19.7279    4.7342 H   0  0  0  0  0  0  0  0  0  0  0  0
   19.0741   18.9790    6.2464 H   0  0  0  0  0  0  0  0  0  0  0  0
   21.3896   19.0460    6.5999 H   0  0  0  0  0  0  0  0  0  0  0  0
   20.9456   17.3276    6.1593 H   0  0  0  0  0  0  0  0  0  0  0  0
   20.1699   14.3235    7.4776 H   0  0  0  0  0  0  0  0  0  0  0  0
   21.7643   15.0404    7.0650 H   0  0  0  0  0  0  0  0  0  0  0  0
   20.2907   16.0675    7.0650 H   0  0  0  0  0  0  0  0  0  0  0  0
   21.2308   14.0362    5.0366 H   0  0  0  0  0  0  0  0  0  0  0  0
   20.5055   15.6494    4.7791 H   0  0  0  0  0  0  0  0  0  0  0  0
  2  1  2  0
  3  2  1  0
  4  3  1  0
  5  4  2  0
  5  1  1  0
  6  5  1  0
  7  6  1  0
  8  6  1  0
  9  8  1  0
 10  9  1  0
 10  4  1  0
 11  2  1  0
 12 11  1  0
 13 12  2  0
 14 12  1  0
 15 14  1  0
 16 15  1  0
 17 16  2  0
 18 16  1  0
 19  1  1  0
 20 19  2  0
 21 19  1  0
 23 21  1  0
 23 22  1  0
  6 24  1  1
  7 25  1  0
  7 26  1  0
  7 27  1  0
  8 28  1  0
  8 29  1  0
  9 30  1  0
  9 31  1  0
 10 32  1  0
 10 33  1  0
 11 34  1  0
 14 35  1  0
 14 36  1  0
 15 37  1  0
 15 38  1  0
 22 39  1  0
 22 40  1  0
 22 41  1  0
 23 42  1  0
 23 43  1  0
M  CHG  1  18  -1
M  END
$$$$
=
     RDKit          3D

 46 48  0  0  0  0  0  0  0  0999 V2000
   17.1770   15.0390    4.2290 C   0  0  2  0  0  0  0  0  0  0  0  0
   17.1420   15.5970    5.6700 C   0  0  0  0  0  0  0  0  0  0  0  0
   18.3450   16.4660    6.0270 C   0  0  0  0  0  0  0  0  0  0  0  0
   18.5320   17.5770    5.0170 C   0  0  0  0  0  0  0  0  0  0  0  0
   18.7350   17.0290    3.6430 N   0  0  2  0  0  4  0  0  0  0  0  0
   17.5960   16.1100    3.1970 C   0  0  0  0  0  0  0  0  0  0  0  0
   11.8370   12.8080    3.1260 C   0  0  0  0  0  0  0  0  0  0  0  0
   13.1970   13.3620    3.4280 C   0  0  0  0  0  0  0  0  0  0  0  0
   13.3410   14.5320    4.1760 C   0  0  0  0  0  0  0  0  0  0  0  0
   14.6100   15.0650    4.4260 C   0  0  0  0  0  0  0  0  0  0  0  0
   15.7770   14.4590    3.9180 C   0  0  0  0  0  0  0  0  0  0  0  0
   15.6120   13.2760    3.1790 C   0  0  0  0  0  0  0  0  0  0  0  0
   14.3430   12.7440    2.9260 C   0  0  0  0  0  0  0  0  0  0  0  0
   18.2740   13.9650    4.0200 C   0  0  0  0  0  0  0  0  0  0  0  0
   18.8390   13.5420    5.0660 O   0  0  0  0  0  0  0  0  0  0  0  0
   18.5700   13.6990    2.8210 O   0  0  0  0  0  1  0  0  0  0  0  0
   20.1310   16.4770    3.3930 C   0  0  0  0  0  0  0  0  0  0  0  0
   21.1700   17.1800    4.2310 C   0  0  0  0  0  0  0  0  0  0  0  0
   21.6670   18.4360    3.8470 C   0  0  0  0  0  0  0  0  0  0  0  0
   22.6540   19.0680    4.6050 C   0  0  0  0  0  0  0  0  0  0  0  0
   23.1550   18.4530    5.7510 C   0  0  0  0  0  0  0  0  0  0  0  0
   22.6690   17.2070    6.1410 C   0  0  0  0  0  0  0  0  0  0  0  0
   21.6810   16.5730    5.3850 C   0  0  0  0  0  0  0  0  0  0  0  0
   16.2311   16.2029    5.7846 H   0  0  0  0  0  0  0  0  0  0  0  0
   17.1618   14.7310    6.3479 H   0  0  0  0  0  0  0  0  0  0  0  0
   18.1868   16.9076    7.0220 H   0  0  0  0  0  0  0  0  0  0  0  0
   19.2459   15.8348    6.0235 H   0  0  0  0  0  0  0  0  0  0  0  0
   17.6381   18.2181    5.0192 H   0  0  0  0  0  0  0  0  0  0  0  0
   19.4248   18.1555    5.2967 H   0  0  0  0  0  0  0  0  0  0  0  0
   18.6848   17.8407    3.0109 H   0  0  0  0  0  0  0  0  0  0  0  0
   17.9141   15.5934    2.2795 H   0  0  0  0  0  0  0  0  0  0  0  0
   16.7182   16.7571    3.0528 H   0  0  0  0  0  0  0  0  0  0  0  0
   11.3109   12.5937    4.0680 H   0  0  0  0  0  0  0  0  0  0  0  0
   11.2623   13.5437    2.5442 H   0  0  0  0  0  0  0  0  0  0  0  0
   11.9399   11.8801    2.5442 H   0  0  0  0  0  0  0  0  0  0  0  0
   12.4489   15.0391    4.5722 H   0  0  0  0  0  0  0  0  0  0  0  0
   14.6993   15.9780    5.0330 H   0  0  0  0  0  0  0  0  0  0  0  0
   16.5002   12.7563    2.7905 H   0  0  0  0  0  0  0  0  0  0  0  0
   14.2475   11.8280    2.3244 H   0  0  0  0  0  0  0  0  0  0  0  0
   20.1396   15.4052    3.6405 H   0  0  0  0  0  0  0  0  0  0  0  0
   20.3785   16.6403    2.3337 H   0  0  0  0  0  0  0  0  0  0  0  0
   21.2758   18.9251    2.9427 H   0  0  0  0  0  0  0  0  0  0  0  0
   23.0368   20.0524    4.2976 H   0  0  0  0  0  0  0  0  0  0  0  0
   23.9337   18.9512    6.3472 H   0  0  0  0  0  0  0  0  0  0  0  0
   23.0642   16.7220    7.0458 H   0  0  0  0  0  0  0  0  0  0  0  0
   21.3012   15.5893    5.6982 H   0  0  0  0  0  0  0  0  0  0  0  0
  2  1  1  0
  3  2  1  0
  4  3  1  0
  5  4  1  0
  6  1  1  0
  6  5  1  0
  8  7  1  0
  9  8  2  0
 10  9  1  0
 11 10  2  0
 11  1  1  0
 12 11  1  0
 13 12  2  0
 13  8  1  0
  1 14  1  1
 15 14  2  0
 16 14  1  0
 17  5  1  0
 18 17  1  0
 19 18  2  0
 20 19  1  0
 21 20  2  0
 22 21  1  0
 23 18  1  0
 23 22  2  0
  2 24  1  0
  2 25  1  0
  3 26  1  0
  3 27  1  0
  4 28  1  0
  4 29  1  0
  5 30  1  6
  6 31  1  0
  6 32  1  0
  7 33  1  0
  7 34  1  0
  7 35  1  0
  9 36  1  0
 10 37  1  0
 12 38  1  0
 13 39  1  0
 17 40  1  0
 17 41  1  0
 19 42  1  0
 20 43  1  0
 21 44  1  0
 22 45  1  0
 23 46  1  0
M  CHG  2   5   1  16  -1
M  END
$$$$
=
     RDKit          3D

 29 30  0  0  0  0  0  0  0  0999 V2000
   20.2680   16.3880    4.8740 C   0  0  0  0  0  0  0  0  0  0  0  0
   20.4320   15.3590    3.9870 N   0  0  0  0  0  0  0  0  0  0  0  0
   19.2320   14.9470    3.6080 N   0  0  0  0  0  0  0  0  0  0  0  0
   18.2930   15.6330    4.3130 N   0  0  0  0  0  0  0  0  0  0  0  0
   18.9100   16.6450    5.0350 C   0  0  0  0  0  0  0  0  0  0  0  0
   18.2460   17.7580    5.7490 C   0  0  0  0  0  0  0  0  0  0  0  0
   16.9240   15.2390    4.2230 C   0  0  0  0  0  0  0  0  0  0  0  0
   15.9050   15.9360    4.8750 C   0  0  0  0  0  0  0  0  0  0  0  0
   14.5760   15.5110    4.7630 C   0  0  0  0  0  0  0  0  0  0  0  0
   14.2380   14.3790    4.0080 C   0  0  0  0  0  0  0  0  0  0  0  0
   15.2600   13.6510    3.3720 C   0  0  0  0  0  0  0  0  0  0  0  0
   16.5920   14.0870    3.4890 C   0  0  0  0  0  0  0  0  0  0  0  0
   14.9610   12.4190    2.5610 C   0  0  0  0  0  0  0  0  0  0  0  0
   12.7980   13.9560    3.9200 C   0  0  0  0  0  0  0  0  0  0  0  0
   22.0050   16.6300    6.5870 O   0  0  0  0  0  1  0  0  0  0  0  0
   21.4660   17.1730    5.5740 C   0  0  0  0  0  0  0  0  0  0  0  0
   21.7880   18.2940    5.0640 O   0  0  0  0  0  0  0  0  0  0  0  0
   18.3379   17.6040    6.8343 H   0  0  0  0  0  0  0  0  0  0  0  0
   18.7246   18.7088    5.4717 H   0  0  0  0  0  0  0  0  0  0  0  0
   17.1820   17.7885    5.4717 H   0  0  0  0  0  0  0  0  0  0  0  0
   16.1475   16.8227    5.4791 H   0  0  0  0  0  0  0  0  0  0  0  0
   13.7831   16.0749    5.2762 H   0  0  0  0  0  0  0  0  0  0  0  0
   17.3911   13.5143    2.9956 H   0  0  0  0  0  0  0  0  0  0  0  0
   14.7563   11.5757    3.2370 H   0  0  0  0  0  0  0  0  0  0  0  0
   14.0812   12.6022    1.9266 H   0  0  0  0  0  0  0  0  0  0  0  0
   15.8269   12.1786    1.9266 H   0  0  0  0  0  0  0  0  0  0  0  0
   12.3886   13.8357    4.9339 H   0  0  0  0  0  0  0  0  0  0  0  0
   12.2228   14.7231    3.3809 H   0  0  0  0  0  0  0  0  0  0  0  0
   12.7291   12.9997    3.3809 H   0  0  0  0  0  0  0  0  0  0  0  0
  2  1  1  0
  3  2  2  0
  4  3  1  0
  5  4  1  0
  5  1  2  0
  6  5  1  0
  7  4  1  0
  8  7  2  0
  9  8  1  0
 10  9  2  0
 11 10  1  0
 12 11  2  0
 12  7  1  0
 13 11  1  0
 14 10  1  0
 16  1  1  0
 16 15  1  0
 17 16  2  0
  6 18  1  0
  6 19  1  0
  6 20  1  0
  8 21  1  0
  9 22  1  0
 12 23  1  0
 13 24  1  0
 13 25  1  0
 13 26  1  0
 14 27  1  0
 14 28  1  0
 14 29  1  0
M  CHG  1  15  -1
M  END
$$$$
=
     RDKit          3D

 27 29  0  0  0  0  0  0  0  0999 V2000
   19.8630   17.6230    5.0810 C   0  0  0  0  0  0  0  0  0  0  0  0
   19.2750   18.5870    5.9020 N   0  0  0  0  0  0  0  0  0  0  0  0
   18.0120   18.2420    5.9820 C   0  0  0  0  0  0  0  0  0  0  0  0
   17.7450   17.1050    5.2690 N   0  0  0  0  0  0  0  0  0  0  0  0
   18.9280   16.6730    4.7170 C   0  0  0  0  0  0  0  0  0  0  0  0
   18.9690   15.4570    3.9510 C   0  0  0  0  0  0  0  0  0  0  0  0
   19.9570   14.8950    3.4880 O   0  0  0  0  0  0  0  0  0  0  0  0
   17.7220   14.8580    3.7820 N   0  0  0  0  0  0  0  0  0  0  0  0
   16.5400   15.3150    4.3270 C   0  0  0  0  0  0  0  0  0  0  0  0
   16.5480   16.4330    5.0740 C   0  0  0  0  0  0  0  0  0  0  0  0
   15.3090   14.5590    4.0600 C   0  0  0  0  0  0  0  0  0  0  0  0
   14.0880   14.9470    4.6280 C   0  0  0  0  0  0  0  0  0  0  0  0
   12.9240   14.2160    4.3750 C   0  0  0  0  0  0  0  0  0  0  0  0
   12.9710   13.0910    3.5530 C   0  0  0  0  0  0  0  0  0  0  0  0
   14.1800   12.6950    2.9840 C   0  0  0  0  0  0  0  0  0  0  0  0
   15.3440   13.4240    3.2380 C   0  0  0  0  0  0  0  0  0  0  0  0
   22.1720   16.8580    5.2200 O   0  0  0  0  0  1  0  0  0  0  0  0
   21.3810   17.6270    4.5910 C   0  0  0  0  0  0  0  0  0  0  0  0
   21.6590   18.3760    3.6040 O   0  0  0  0  0  0  0  0  0  0  0  0
   17.2569   18.8006    6.5545 H   0  0  0  0  0  0  0  0  0  0  0  0
   17.6796   14.0064    3.2042 H   0  0  0  0  0  0  0  0  0  0  0  0
   15.6176   16.8093    5.5243 H   0  0  0  0  0  0  0  0  0  0  0  0
   14.0455   15.8335    5.2778 H   0  0  0  0  0  0  0  0  0  0  0  0
   11.9701   14.5286    4.8248 H   0  0  0  0  0  0  0  0  0  0  0  0
   12.0545   12.5163    3.3537 H   0  0  0  0  0  0  0  0  0  0  0  0
   14.2176   11.8080    2.3346 H   0  0  0  0  0  0  0  0  0  0  0  0
   16.2962   13.1048    2.7892 H   0  0  0  0  0  0  0  0  0  0  0  0
  2  1  1  0
  3  2  2  0
  4  3  1  0
  5  4  1  0
  5  1  2  0
  6  5  1  0
  7  6  2  0
  8  6  1  0
  9  8  1  0
 10  9  2  0
 10  4  1  0
 11  9  1  0
 12 11  2  0
 13 12  1  0
 14 13  2  0
 15 14  1  0
 16 15  2  0
 16 11  1  0
 18  1  1  0
 18 17  1  0
 19 18  2  0
  3 20  1  0
  8 21  1  0
 10 22  1  0
 12 23  1  0
 13 24  1  0
 14 25  1  0
 15 26  1  0
 16 27  1  0
M  CHG  1  17  -1
M  END
$$$$
=
     RDKit          3D

 27 28  0  0  0  0  0  0  0  0999 V2000
   20.7500   16.2320    4.9010 C   0  0  2  0  0  0  0  0  0  0  0  0
   21.2930   17.5630    4.4100 C   0  0  0  0  0  0  0  0  0  0  0  0
   20.3840   18.5940    5.0600 C   0  0  0  0  0  0  0  0  0  0  0  0
   19.0320   17.9160    5.2460 C   0  0  0  0  0  0  0  0  0  0  0  0
   19.2290   16.4910    4.8190 N   0  0  2  0  0  4  0  0  0  0  0  0
   20.8560   14.9140    6.8760 O   0  0  0  0  0  1  0  0  0  0  0  0
   21.3770   15.9100    6.2950 C   0  0  0  0  0  0  0  0  0  0  0  0
   22.3300   16.6560    6.6340 O   0  0  0  0  0  0  0  0  0  0  0  0
   18.4170   15.4900    5.5930 C   0  0  0  0  0  0  0  0  0  0  0  0
   17.0290   15.3970    5.0560 C   0  0  0  0  0  0  0  0  0  0  0  0
   15.7890   15.7180    5.5670 C   0  0  0  0  0  0  0  0  0  0  0  0
   14.8470   15.3920    4.5620 C   0  0  0  0  0  0  0  0  0  0  0  0
   15.5690   14.8940    3.5030 C   0  0  0  0  0  0  0  0  0  0  0  0
   16.8960   14.8950    3.7900 O   0  0  0  0  0  0  0  0  0  0  0  0
   20.9958   15.3192    4.3386 H   0  0  0  0  0  0  0  0  0  0  0  0
   22.3355   17.7026    4.7320 H   0  0  0  0  0  0  0  0  0  0  0  0
   21.3010   17.6379    3.3126 H   0  0  0  0  0  0  0  0  0  0  0  0
   20.7927   18.9021    6.0337 H   0  0  0  0  0  0  0  0  0  0  0  0
   20.2959   19.4974    4.4387 H   0  0  0  0  0  0  0  0  0  0  0  0
   18.7225   17.9609    6.3006 H   0  0  0  0  0  0  0  0  0  0  0  0
   18.2457   18.4108    4.6571 H   0  0  0  0  0  0  0  0  0  0  0  0
   18.8768   16.3603    3.8600 H   0  0  0  0  0  0  0  0  0  0  0  0
   18.8977   14.5033    5.5198 H   0  0  0  0  0  0  0  0  0  0  0  0
   18.3654   15.8171    6.6420 H   0  0  0  0  0  0  0  0  0  0  0  0
   15.5745   16.1430    6.5587 H   0  0  0  0  0  0  0  0  0  0  0  0
   13.7551   15.5129    4.6172 H   0  0  0  0  0  0  0  0  0  0  0  0
   15.1326   14.5438    2.5559 H   0  0  0  0  0  0  0  0  0  0  0  0
  2  1  1  0
  3  2  1  0
  4  3  1  0
  5  1  1  0
  5  4  1  0
  7  1  1  0
  7  6  1  0
  8  7  2  0
  9  5  1  0
 10  9  1  0
 11 10  2  0
 12 11  1  0
 13 12  2  0
 14 13  1  0
 14 10  1  0
  1 15  1  6
  2 16  1  0
  2 17  1  0
  3 18  1  0
  3 19  1  0
  4 20  1  0
  4 21  1  0
  5 22  1  6
  9 23  1  0
  9 24  1  0
 11 25  1  0
 12 26  1  0
 13 27  1  0
M  CHG  2   5   1   6  -1
M  END
$$$$
=
     RDKit          3D

 16 15  0  0  0  0  0  0  0  0999 V2000
   15.0640   14.4770    3.9500 C   0  0  0  0  0  0  0  0  0  0  0  0
   16.1560   13.9600    3.3640 C   0  0  0  0  0  0  0  0  0  0  0  0
   16.1980   12.5580    2.7400 C   0  0  0  0  0  0  0  0  0  0  0  0
   17.3490   12.0380    2.7460 O   0  0  0  0  0  0  0  0  0  0  0  0
   15.1000   12.1030    2.3200 O   0  0  0  0  0  1  0  0  0  0  0  0
   15.0170   15.8310    4.5810 C   0  0  0  0  0  0  0  0  0  0  0  0
   17.1300   16.9430    5.5960 C   0  0  0  0  0  0  0  0  0  0  0  0
   16.0080   15.9440    5.7300 C   0  0  0  0  0  0  0  0  0  0  0  0
   15.8700   15.2870    6.7650 O   0  0  0  0  0  0  0  0  0  0  0  0
   14.1487   13.8671    3.9666 H   0  0  0  0  0  0  0  0  0  0  0  0
   17.0685   14.5733    3.3293 H   0  0  0  0  0  0  0  0  0  0  0  0
   15.2620   16.5882    3.8216 H   0  0  0  0  0  0  0  0  0  0  0  0
   14.0047   15.9912    4.9805 H   0  0  0  0  0  0  0  0  0  0  0  0
   17.4716   17.2471    6.5964 H   0  0  0  0  0  0  0  0  0  0  0  0
   17.9656   16.4844    5.0469 H   0  0  0  0  0  0  0  0  0  0  0  0
   16.7711   17.8260    5.0469 H   0  0  0  0  0  0  0  0  0  0  0  0
  2  1  2  0
  3  2  1  0
  4  3  2  0
  5  3  1  0
  6  1  1  0
  8  6  1  0
  8  7  1  0
  9  8  2  0
  1 10  1  0
  2 11  1  0
  6 12  1  0
  6 13  1  0
  7 14  1  0
  7 15  1  0
  7 16  1  0
M  CHG  1   5  -1
M  END
$$$$
=
     RDKit          3D

 46 48  0  0  0  0  0  0  0  0999 V2000
   23.3350   26.1320   11.2330 O   0  0  0  0  0  0  0  0  0  0  0  0
   23.5460   26.5840   12.3510 C   0  0  0  0  0  0  0  0  0  0  0  0
   24.7210   26.3920   13.0550 N   0  0  0  0  0  0  0  0  0  0  0  0
   25.8260   25.6660   12.4370 C   0  0  0  0  0  0  0  0  0  0  0  0
   27.1650   26.2860   12.8160 C   0  0  0  0  0  0  0  0  0  0  0  0
   27.3840   26.2570   14.3430 C   0  0  0  0  0  0  0  0  0  0  0  0
   26.0620   26.2290   15.1380 C   0  0  0  0  0  0  0  0  0  0  0  0
   24.9280   26.9300   14.3970 C   0  0  0  0  0  0  0  0  0  0  0  0
   28.2310   25.0610   14.7430 C   0  0  0  0  0  0  0  0  0  0  0  0
   29.4010   25.3890   15.3210 C   0  0  0  0  0  0  0  0  0  0  0  0
   29.4670   26.8410   15.3650 C   0  0  0  0  0  0  0  0  0  0  0  0
   28.2980   27.3790   14.7940 C   0  0  0  0  0  0  0  0  0  0  0  0
   28.1070   28.7540   14.7050 C   0  0  0  0  0  0  0  0  0  0  0  0
   29.1010   29.6000   15.1990 C   0  0  0  0  0  0  0  0  0  0  0  0
   30.2660   29.0690   15.7710 C   0  0  0  0  0  0  0  0  0  0  0  0
   30.4510   27.6860   15.8550 C   0  0  0  0  0  0  0  0  0  0  0  0
   30.4410   24.3840   15.8230 C   0  0  0  0  0  0  0  0  0  0  0  0
   30.8510   23.5260   14.9900 O   0  0  0  0  0  0  0  0  0  0  0  0
   30.7840   24.5260   17.0360 O   0  0  0  0  0  1  0  0  0  0  0  0
   22.6600   27.3470   13.0460 O   0  0  0  0  0  0  0  0  0  0  0  0
   21.3380   26.8480   13.3720 C   0  0  0  0  0  0  0  0  0  0  0  0
   21.3830   25.3760   13.7940 C   0  0  0  0  0  0  0  0  0  0  0  0
   20.3520   27.0890   12.2250 C   0  0  0  0  0  0  0  0  0  0  0  0
   20.8970   27.6890   14.5810 C   0  0  0  0  0  0  0  0  0  0  0  0
   25.8045   24.6201   12.7772 H   0  0  0  0  0  0  0  0  0  0  0  0
   25.7122   25.7176   11.3441 H   0  0  0  0  0  0  0  0  0  0  0  0
   27.9726   25.7211   12.3274 H   0  0  0  0  0  0  0  0  0  0  0  0
   27.1682   27.3349   12.4846 H   0  0  0  0  0  0  0  0  0  0  0  0
   25.7762   25.1813   15.3130 H   0  0  0  0  0  0  0  0  0  0  0  0
   26.2268   26.7631   16.0854 H   0  0  0  0  0  0  0  0  0  0  0  0
   23.9997   26.8060   14.9740 H   0  0  0  0  0  0  0  0  0  0  0  0
   25.2010   27.9906   14.2938 H   0  0  0  0  0  0  0  0  0  0  0  0
   27.9162   24.0205   14.5752 H   0  0  0  0  0  0  0  0  0  0  0  0
   27.1918   29.1658   14.2547 H   0  0  0  0  0  0  0  0  0  0  0  0
   28.9697   30.6905   15.1393 H   0  0  0  0  0  0  0  0  0  0  0  0
   31.0414   29.7470   16.1571 H   0  0  0  0  0  0  0  0  0  0  0  0
   31.3662   27.2731   16.3044 H   0  0  0  0  0  0  0  0  0  0  0  0
   21.3850   25.3092   14.8920 H   0  0  0  0  0  0  0  0  0  0  0  0
   20.5004   24.8535   13.3965 H   0  0  0  0  0  0  0  0  0  0  0  0
   22.2959   24.9084   13.3965 H   0  0  0  0  0  0  0  0  0  0  0  0
   19.3615   27.3311   12.6377 H   0  0  0  0  0  0  0  0  0  0  0  0
   20.7064   27.9270   11.6068 H   0  0  0  0  0  0  0  0  0  0  0  0
   20.2799   26.1820   11.6068 H   0  0  0  0  0  0  0  0  0  0  0  0
   21.1706   27.1673   15.5100 H   0  0  0  0  0  0  0  0  0  0  0  0
   21.3979   28.6678   14.5491 H   0  0  0  0  0  0  0  0  0  0  0  0
   19.8070   27.8336   14.5491 H   0  0  0  0  0  0  0  0  0  0  0  0
  2  1  2  0
  3  2  1  0
  4  3  1  0
  5  4  1  0
  6  5  1  0
  7  6  1  0
  8  7  1  0
  8  3  1  0
  9  6  1  0
 10  9  2  0
 11 10  1  0
 12 11  2  0
 12  6  1  0
 13 12  1  0
 14 13  2  0
 15 14  1  0
 16 11  1  0
 16 15  2  0
 17 10  1  0
 18 17  2  0
 19 17  1  0
 20  2  1  0
 21 20  1  0
 22 21  1  0
 23 21  1  0
 24 21  1  0
  4 25  1  0
  4 26  1  0
  5 27  1  0
  5 28  1  0
  7 29  1  0
  7 30  1  0
  8 31  1  0
  8 32  1  0
  9 33  1  0
 13 34  1  0
 14 35  1  0
 15 36  1  0
 16 37  1  0
 22 38  1  0
 22 39  1  0
 22 40  1  0
 23 41  1  0
 23 42  1  0
 23 43  1  0
 24 44  1  0
 24 45  1  0
 24 46  1  0
M  CHG  1  19  -1
M  END
$$$$
=
     RDKit          3D

 35 35  0  0  0  0  0  0  0  0999 V2000
   19.1520   16.2080    4.2510 C   0  0  1  0  0  0  0  0  0  0  0  0
   17.6130   16.0580    4.3960 C   0  0  0  0  0  0  0  0  0  0  0  0
   17.0910   14.7470    3.7780 C   0  0  0  0  0  0  0  0  0  0  0  0
   15.5620   14.6620    3.8050 C   0  0  0  0  0  0  0  0  0  0  0  0
   14.9250   15.4110    4.9740 C   0  0  0  0  0  0  0  0  0  0  0  0
   15.8460   15.4370    6.1830 C   0  0  0  0  0  0  0  0  0  0  0  0
   17.1680   16.1450    5.8750 C   0  0  0  0  0  0  0  0  0  0  0  0
   19.4430   17.1260    3.0620 C   0  0  0  0  0  0  0  0  0  0  0  0
   19.3280   18.3630    3.2820 O   0  0  0  0  0  0  0  0  0  0  0  0
   19.8250   16.5360    2.0160 O   0  0  0  0  0  1  0  0  0  0  0  0
   19.8000   16.8620    5.4750 C   0  0  0  0  0  0  0  0  0  0  0  0
   21.4270   16.2530    5.9150 S   0  0  0  0  0  6  0  0  0  0  0  0
   21.3060   15.7370    7.2730 O   0  0  0  0  0  0  0  0  0  0  0  0
   21.8790   15.3460    4.8730 O   0  0  0  0  0  0  0  0  0  0  0  0
   22.5170   18.4470    4.6980 C   0  0  0  0  0  0  0  0  0  0  0  0
   22.5470   17.6460    5.9870 C   0  0  0  0  0  0  0  0  0  0  0  0
   19.5630   15.1954    4.1254 H   0  0  0  0  0  0  0  0  0  0  0  0
   17.1739   16.8993    3.8398 H   0  0  0  0  0  0  0  0  0  0  0  0
   17.4305   14.6883    2.7333 H   0  0  0  0  0  0  0  0  0  0  0  0
   17.4858   13.9120    4.3754 H   0  0  0  0  0  0  0  0  0  0  0  0
   15.1741   15.0873    2.8676 H   0  0  0  0  0  0  0  0  0  0  0  0
   15.3015   13.5999    3.9240 H   0  0  0  0  0  0  0  0  0  0  0  0
   14.7123   16.4447    4.6636 H   0  0  0  0  0  0  0  0  0  0  0  0
   13.9981   14.8898    5.2556 H   0  0  0  0  0  0  0  0  0  0  0  0
   15.3410   15.9670    7.0040 H   0  0  0  0  0  0  0  0  0  0  0  0
   16.0718   14.3976    6.4634 H   0  0  0  0  0  0  0  0  0  0  0  0
   17.0584   17.2072    6.1389 H   0  0  0  0  0  0  0  0  0  0  0  0
   17.9421   15.6327    6.4652 H   0  0  0  0  0  0  0  0  0  0  0  0
   19.8858   17.9404    5.2757 H   0  0  0  0  0  0  0  0  0  0  0  0
   19.1483   16.6147    6.3260 H   0  0  0  0  0  0  0  0  0  0  0  0
   22.4768   19.5206    4.9343 H   0  0  0  0  0  0  0  0  0  0  0  0
   23.4237   18.2341    4.1128 H   0  0  0  0  0  0  0  0  0  0  0  0
   21.6287   18.1668    4.1128 H   0  0  0  0  0  0  0  0  0  0  0  0
   22.2525   18.2994    6.8215 H   0  0  0  0  0  0  0  0  0  0  0  0
   23.5677   17.2628    6.1332 H   0  0  0  0  0  0  0  0  0  0  0  0
  2  1  1  0
  3  2  1  0
  4  3  1  0
  5  4  1  0
  6  5  1  0
  7  6  1  0
  7  2  1  0
  8  1  1  0
  9  8  2  0
 10  8  1  0
 11  1  1  0
 12 11  1  0
 13 12  2  0
 14 12  2  0
 16 12  1  0
 16 15  1  0
  1 17  1  6
  2 18  1  0
  3 19  1  0
  3 20  1  0
  4 21  1  0
  4 22  1  0
  5 23  1  0
  5 24  1  0
  6 25  1  0
  6 26  1  0
  7 27  1  0
  7 28  1  0
 11 29  1  0
 11 30  1  0
 15 31  1  0
 15 32  1  0
 15 33  1  0
 16 34  1  0
 16 35  1  0
M  CHG  1  10  -1
M  END
$$$$
=
     RDKit          3D

 40 42  0  0  0  0  0  0  0  0999 V2000
   18.0160   15.6130    4.6720 C   0  0  0  0  0  0  0  0  0  0  0  0
   16.8990   16.1410    5.2210 C   0  0  0  0  0  0  0  0  0  0  0  0
   16.8710   17.3280    6.1440 C   0  0  0  0  0  0  0  0  0  0  0  0
   15.6180   15.6620    4.9850 O   0  0  0  0  0  0  0  0  0  0  0  0
   15.4510   14.5770    4.1680 C   0  0  0  0  0  0  0  0  0  0  0  0
   16.5070   13.9440    3.5300 C   0  0  0  0  0  0  0  0  0  0  0  0
   17.8670   14.4610    3.7330 C   0  0  0  0  0  0  0  0  0  0  0  0
   18.8260   13.9690    3.1460 O   0  0  0  0  0  0  0  0  0  0  0  0
   16.2690   12.8380    2.7100 C   0  0  0  0  0  0  0  0  0  0  0  0
   14.9630   12.3730    2.5300 C   0  0  0  0  0  0  0  0  0  0  0  0
   13.8950   13.0120    3.1610 C   0  0  0  0  0  0  0  0  0  0  0  0
   14.1490   14.1140    3.9850 C   0  0  0  0  0  0  0  0  0  0  0  0
   21.9260   17.1710    5.4940 C   0  0  0  0  0  0  0  0  0  0  0  0
   21.3920   16.1490    6.2820 C   0  0  0  0  0  0  0  0  0  0  0  0
   20.1210   15.6310    6.0140 C   0  0  0  0  0  0  0  0  0  0  0  0
   19.3630   16.1410    4.9550 C   0  0  0  0  0  0  0  0  0  0  0  0
   19.9010   17.1630    4.1640 C   0  0  0  0  0  0  0  0  0  0  0  0
   21.1750   17.6770    4.4320 C   0  0  0  0  0  0  0  0  0  0  0  0
   23.7160   18.6950    5.1570 C   0  0  0  0  0  0  0  0  0  0  0  0
   23.1760   17.5850    5.8640 O   0  0  0  0  0  0  0  0  0  0  0  0
   12.5750   12.6730    3.0680 O   0  0  0  0  0  0  0  0  0  0  0  0
   11.6210   13.4210    3.8470 C   0  0  0  0  0  0  0  0  0  0  0  0
   10.2130   13.4070    3.2190 C   0  0  0  0  0  0  0  0  0  0  0  0
    9.9050   12.3250    2.6330 O   0  0  0  0  0  0  0  0  0  0  0  0
    9.5480   14.4780    3.3160 O   0  0  0  0  0  1  0  0  0  0  0  0
   16.8792   16.9811    7.1878 H   0  0  0  0  0  0  0  0  0  0  0  0
   17.7546   17.9568    5.9596 H   0  0  0  0  0  0  0  0  0  0  0  0
   15.9588   17.9144    5.9596 H   0  0  0  0  0  0  0  0  0  0  0  0
   17.1076   12.3342    2.2071 H   0  0  0  0  0  0  0  0  0  0  0  0
   14.7764   11.4994    1.8881 H   0  0  0  0  0  0  0  0  0  0  0  0
   13.3141   14.6192    4.4927 H   0  0  0  0  0  0  0  0  0  0  0  0
   21.9773   15.7473    7.1223 H   0  0  0  0  0  0  0  0  0  0  0  0
   19.7163   14.8203    6.6377 H   0  0  0  0  0  0  0  0  0  0  0  0
   19.3168   17.5661    3.3236 H   0  0  0  0  0  0  0  0  0  0  0  0
   21.5853   18.4816    3.8041 H   0  0  0  0  0  0  0  0  0  0  0  0
   24.0807   19.4446    5.8747 H   0  0  0  0  0  0  0  0  0  0  0  0
   24.5501   18.3565    4.5248 H   0  0  0  0  0  0  0  0  0  0  0  0
   22.9348   19.1423    4.5248 H   0  0  0  0  0  0  0  0  0  0  0  0
   11.5637   12.9810    4.8536 H   0  0  0  0  0  0  0  0  0  0  0  0
   11.9625   14.4660    3.8840 H   0  0  0  0  0  0  0  0  0  0  0  0
  2  1  2  0
  3  2  1  0
  4  2  1  0
  5  4  1  0
  6  5  2  0
  7  6  1  0
  7  1  1  0
  8  7  2  0
  9  6  1  0
 10  9  2  0
 11 10  1  0
 12 11  2  0
 12  5  1  0
 14 13  2  0
 15 14  1  0
 16  1  1  0
 16 15  2  0
 17 16  1  0
 18 17  2  0
 18 13  1  0
 20 19  1  0
 20 13  1  0
 21 11  1  0
 22 21  1  0
 23 22  1  0
 24 23  2  0
 25 23  1  0
  3 26  1  0
  3 27  1  0
  3 28  1  0
  9 29  1  0
 10 30  1  0
 12 31  1  0
 14 32  1  0
 15 33  1  0
 17 34  1  0
 18 35  1  0
 19 36  1  0
 19 37  1  0
 19 38  1  0
 22 39  1  0
 22 40  1  0
M  CHG  1  25  -1
M  END
$$$$
=
     RDKit          3D

 24 24  0  0  0  0  0  0  0  0999 V2000
   17.5990   15.5550    3.9140 C   0  0  2  0  0  0  0  0  0  0  0  0
   18.5860   16.5480    4.1430 C   0  0  0  0  0  0  0  0  0  0  0  0
   19.4400   17.3890    3.5840 C   0  0  0  0  0  0  0  0  0  0  0  0
   20.3190   18.2860    4.3980 C   0  0  0  0  0  0  0  0  0  0  0  0
   19.5930   17.4710    2.0960 C   0  0  0  0  0  0  0  0  0  0  0  0
   18.0560   16.0720    5.3660 C   0  0  0  0  0  0  0  0  0  0  0  0
   17.0820   16.9280    6.1230 C   0  0  0  0  0  0  0  0  0  0  0  0
   18.9290   15.2020    6.2300 C   0  0  0  0  0  0  0  0  0  0  0  0
   17.1250   13.3260    3.3520 O   0  0  0  0  0  1  0  0  0  0  0  0
   18.0250   14.2200    3.4620 C   0  0  0  0  0  0  0  0  0  0  0  0
   19.2490   14.0480    3.1550 O   0  0  0  0  0  0  0  0  0  0  0  0
   16.6573   15.4698    3.3519 H   0  0  0  0  0  0  0  0  0  0  0  0
   20.1396   18.1029    5.4677 H   0  0  0  0  0  0  0  0  0  0  0  0
   21.3732   18.0786    4.1623 H   0  0  0  0  0  0  0  0  0  0  0  0
   20.0903   19.3358    4.1623 H   0  0  0  0  0  0  0  0  0  0  0  0
   20.5384   17.9777    1.8520 H   0  0  0  0  0  0  0  0  0  0  0  0
   19.6008   16.4561    1.6717 H   0  0  0  0  0  0  0  0  0  0  0  0
   18.7522   18.0394    1.6717 H   0  0  0  0  0  0  0  0  0  0  0  0
   17.2369   16.7919    7.2035 H   0  0  0  0  0  0  0  0  0  0  0  0
   17.2407   17.9843    5.8600 H   0  0  0  0  0  0  0  0  0  0  0  0
   16.0549   16.6350    5.8600 H   0  0  0  0  0  0  0  0  0  0  0  0
   18.7200   15.4103    7.2897 H   0  0  0  0  0  0  0  0  0  0  0  0
   18.7185   14.1438    6.0159 H   0  0  0  0  0  0  0  0  0  0  0  0
   19.9865   15.4161    6.0159 H   0  0  0  0  0  0  0  0  0  0  0  0
  2  1  1  0
  3  2  2  3
  4  3  1  0
  5  3  1  0
  6  1  1  0
  6  2  1  0
  7  6  1  0
  8  6  1  0
 10  9  1  0
 10  1  1  0
 11 10  2  0
  1 12  1  6
  4 13  1  0
  4 14  1  0
  4 15  1  0
  5 16  1  0
  5 17  1  0
  5 18  1  0
  7 19  1  0
  7 20  1  0
  7 21  1  0
  8 22  1  0
  8 23  1  0
  8 24  1  0
M  CHG  1   9  -1
M  END
$$$$
=
     RDKit          3D

 23 23  0  0  0  0  0  0  0  0999 V2000
   28.5110   27.7830   13.7360 C   0  0  0  0  0  0  0  0  0  0  0  0
   28.0360   27.2740   12.5860 N   0  0  0  0  0  0  0  0  0  0  0  0
   28.2480   25.9440   12.7000 N   0  0  0  0  0  0  0  0  0  0  0  0
   28.8470   25.5950   13.8690 C   0  0  0  0  0  0  0  0  0  0  0  0
   29.0840   26.7690   14.5530 C   0  0  0  0  0  0  0  0  0  0  0  0
   27.8080   25.0640   11.6430 C   0  0  0  0  0  0  0  0  0  0  0  0
   29.8640   27.0170   16.0610 S   0  0  0  0  0  6  0  0  0  0  0  0
   28.7650   27.1150   17.0120 O   0  0  0  0  0  0  0  0  0  0  0  0
   30.8510   25.9660   16.2050 O   0  0  0  0  0  0  0  0  0  0  0  0
   30.7800   28.8310   16.2480 Cl  0  0  0  0  0  0  0  0  0  0  0  0
   29.1530   24.1580   14.3230 C   0  0  0  0  0  0  0  0  0  0  0  0
   28.2320   23.5800   14.9580 O   0  0  0  0  0  0  0  0  0  0  0  0
   30.2890   23.7030   14.0120 O   0  0  0  0  0  1  0  0  0  0  0  0
   27.3940   29.6470   15.0630 C   0  0  0  0  0  0  0  0  0  0  0  0
   28.4170   29.2540   14.0040 C   0  0  0  0  0  0  0  0  0  0  0  0
   27.3568   24.1616   12.0812 H   0  0  0  0  0  0  0  0  0  0  0  0
   27.0627   25.5817   11.0213 H   0  0  0  0  0  0  0  0  0  0  0  0
   28.6693   24.7784   11.0213 H   0  0  0  0  0  0  0  0  0  0  0  0
   27.8206   29.4831   16.0636 H   0  0  0  0  0  0  0  0  0  0  0  0
   27.1336   30.7092   14.9449 H   0  0  0  0  0  0  0  0  0  0  0  0
   26.4894   29.0324   14.9449 H   0  0  0  0  0  0  0  0  0  0  0  0
   28.1462   29.7564   13.0637 H   0  0  0  0  0  0  0  0  0  0  0  0
   29.3989   29.5610   14.3933 H   0  0  0  0  0  0  0  0  0  0  0  0
  2  1  2  0
  3  2  1  0
  4  3  1  0
  5  4  2  0
  5  1  1  0
  6  3  1  0
  7  5  1  0
  8  7  2  0
  9  7  2  0
 10  7  1  0
 11  4  1  0
 12 11  2  0
 13 11  1  0
 15 14  1  0
 15  1  1  0
  6 16  1  0
  6 17  1  0
  6 18  1  0
 14 19  1  0
 14 20  1  0
 14 21  1  0
 15 22  1  0
 15 23  1  0
M  CHG  1  13  -1
M  END
$$$$
=
     RDKit          3D

 40 41  0  0  0  0  0  0  0  0999 V2000
   17.6690   16.0410    5.3930 C   0  0  0  0  0  0  0  0  0  0  0  0
   17.4790   15.6960    4.0510 C   0  0  0  0  0  0  0  0  0  0  0  0
   16.2760   15.1250    3.6240 C   0  0  0  0  0  0  0  0  0  0  0  0
   15.2230   14.8980    4.5190 C   0  0  0  0  0  0  0  0  0  0  0  0
   15.4250   15.2530    5.8630 C   0  0  0  0  0  0  0  0  0  0  0  0
   16.6350   15.8120    6.2980 C   0  0  0  0  0  0  0  0  0  0  0  0
   13.9570   14.2790    4.0790 C   0  0  0  0  0  0  0  0  0  0  0  0
   12.7400   14.9120    4.3990 C   0  0  0  0  0  0  0  0  0  0  0  0
   11.5210   14.3600    4.0180 C   0  0  0  0  0  0  0  0  0  0  0  0
   11.5390   13.1710    3.3180 C   0  0  0  0  0  0  0  0  0  0  0  0
   12.6650   12.5180    2.9840 N   0  0  0  0  0  0  0  0  0  0  0  0
   13.8720   13.0710    3.3590 C   0  0  0  0  0  0  0  0  0  0  0  0
   15.1540   12.3380    2.9590 C   0  0  0  0  0  0  0  0  0  0  0  0
   15.6700   11.5560    3.8230 O   0  0  0  0  0  0  0  0  0  0  0  0
   15.5940   12.5470    1.7800 O   0  0  0  0  0  1  0  0  0  0  0  0
   18.8940   18.6890    4.6960 O   0  0  0  0  0  0  0  0  0  0  0  0
   19.4190   17.8220    5.3750 C   0  0  0  0  0  0  0  0  0  0  0  0
   18.9040   16.6130    5.7400 N   0  0  0  0  0  0  0  0  0  0  0  0
   20.6590   17.9200    5.9230 O   0  0  0  0  0  0  0  0  0  0  0  0
   21.8370   17.5260    5.1740 C   0  0  0  0  0  0  0  0  0  0  0  0
   21.8490   18.1570    3.7770 C   0  0  0  0  0  0  0  0  0  0  0  0
   21.9820   16.0020    5.1180 C   0  0  0  0  0  0  0  0  0  0  0  0
   23.0160   18.0990    5.9780 C   0  0  0  0  0  0  0  0  0  0  0  0
   18.2844   15.8757    3.3237 H   0  0  0  0  0  0  0  0  0  0  0  0
   16.1546   14.8492    2.5661 H   0  0  0  0  0  0  0  0  0  0  0  0
   14.6161   15.0888    6.5902 H   0  0  0  0  0  0  0  0  0  0  0  0
   16.7684   16.0709    7.3587 H   0  0  0  0  0  0  0  0  0  0  0  0
   12.7536   15.8584    4.9594 H   0  0  0  0  0  0  0  0  0  0  0  0
   10.5716   14.8564    4.2673 H   0  0  0  0  0  0  0  0  0  0  0  0
   10.5764   12.7325    3.0161 H   0  0  0  0  0  0  0  0  0  0  0  0
   19.5022   16.0416    6.3537 H   0  0  0  0  0  0  0  0  0  0  0  0
   21.8698   19.2529    3.8698 H   0  0  0  0  0  0  0  0  0  0  0  0
   22.7409   17.8184    3.2294 H   0  0  0  0  0  0  0  0  0  0  0  0
   20.9449   17.8525    3.2294 H   0  0  0  0  0  0  0  0  0  0  0  0
   22.0203   15.5995    6.1410 H   0  0  0  0  0  0  0  0  0  0  0  0
   21.1208   15.5710    4.5864 H   0  0  0  0  0  0  0  0  0  0  0  0
   22.9090   15.7412    4.5864 H   0  0  0  0  0  0  0  0  0  0  0  0
   22.8094   17.9986    7.0538 H   0  0  0  0  0  0  0  0  0  0  0  0
   23.9336   17.5463    5.7277 H   0  0  0  0  0  0  0  0  0  0  0  0
   23.1484   19.1619    5.7277 H   0  0  0  0  0  0  0  0  0  0  0  0
  2  1  2  0
  3  2  1  0
  4  3  2  0
  5  4  1  0
  6  5  2  0
  6  1  1  0
  7  4  1  0
  8  7  2  0
  9  8  1  0
 10  9  2  0
 11 10  1  0
 12 11  2  0
 12  7  1  0
 13 12  1  0
 14 13  2  0
 15 13  1  0
 17 16  2  0
 18  1  1  0
 18 17  1  0
 19 17  1  0
 20 19  1  0
 21 20  1  0
 22 20  1  0
 23 20  1  0
  2 24  1  0
  3 25  1  0
  5 26  1  0
  6 27  1  0
  8 28  1  0
  9 29  1  0
 10 30  1  0
 18 31  1  0
 21 32  1  0
 21 33  1  0
 21 34  1  0
 22 35  1  0
 22 36  1  0
 22 37  1  0
 23 38  1  0
 23 39  1  0
 23 40  1  0
M  CHG  1  15  -1
M  END
$$$$
=
     RDKit          3D

 32 32  0  0  0  0  0  0  0  0999 V2000
   16.6880   15.9440    5.9040 C   0  0  0  0  0  0  0  0  0  0  0  0
   17.8990   16.8540    5.6530 C   0  0  0  0  0  0  0  0  0  0  0  0
   19.2780   16.1960    5.4030 C   0  0  0  0  0  0  0  0  0  0  0  0
   19.4780   14.9190    6.2230 C   0  0  0  0  0  0  0  0  0  0  0  0
   20.4550   17.1540    5.6380 C   0  0  0  0  0  0  0  0  0  0  0  0
   18.9640   16.8590    3.1190 O   0  0  0  0  0  1  0  0  0  0  0  0
   19.2930   15.8920    3.8690 C   0  0  0  0  0  0  0  0  0  0  0  0
   19.6180   14.7170    3.5380 O   0  0  0  0  0  0  0  0  0  0  0  0
   15.5050   16.1840    4.9680 C   0  0  0  0  0  0  0  0  0  0  0  0
   15.1160   14.9270    4.2250 C   0  0  0  0  0  0  0  0  0  0  0  0
   16.0600   14.2330    3.4580 C   0  0  0  0  0  0  0  0  0  0  0  0
   15.7020   13.0640    2.7840 C   0  0  0  0  0  0  0  0  0  0  0  0
   14.4000   12.5760    2.8760 C   0  0  0  0  0  0  0  0  0  0  0  0
   13.4540   13.2550    3.6420 C   0  0  0  0  0  0  0  0  0  0  0  0
   13.8100   14.4240    4.3160 C   0  0  0  0  0  0  0  0  0  0  0  0
   17.0132   14.9000    5.7846 H   0  0  0  0  0  0  0  0  0  0  0  0
   16.3324   16.1728    6.9195 H   0  0  0  0  0  0  0  0  0  0  0  0
   17.6669   17.4673    4.7698 H   0  0  0  0  0  0  0  0  0  0  0  0
   18.0279   17.3982    6.6002 H   0  0  0  0  0  0  0  0  0  0  0  0
   19.4399   15.1620    7.2952 H   0  0  0  0  0  0  0  0  0  0  0  0
   18.6816   14.1997    5.9816 H   0  0  0  0  0  0  0  0  0  0  0  0
   20.4562   14.4776    5.9816 H   0  0  0  0  0  0  0  0  0  0  0  0
   20.6129   17.2826    6.7190 H   0  0  0  0  0  0  0  0  0  0  0  0
   21.3645   16.7363    5.1817 H   0  0  0  0  0  0  0  0  0  0  0  0
   20.2306   18.1294    5.1817 H   0  0  0  0  0  0  0  0  0  0  0  0
   14.6450   16.5279    5.5614 H   0  0  0  0  0  0  0  0  0  0  0  0
   15.8016   16.9418    4.2279 H   0  0  0  0  0  0  0  0  0  0  0  0
   17.0904   14.6114    3.3861 H   0  0  0  0  0  0  0  0  0  0  0  0
   16.4484   12.5276    2.1797 H   0  0  0  0  0  0  0  0  0  0  0  0
   14.1189   11.6551    2.3442 H   0  0  0  0  0  0  0  0  0  0  0  0
   12.4264   12.8693    3.7153 H   0  0  0  0  0  0  0  0  0  0  0  0
   13.0613   14.9544    4.9227 H   0  0  0  0  0  0  0  0  0  0  0  0
  2  1  1  0
  3  2  1  0
  4  3  1  0
  5  3  1  0
  7  3  1  0
  7  6  1  0
  8  7  2  0
  9  1  1  0
 10  9  1  0
 11 10  2  0
 12 11  1  0
 13 12  2  0
 14 13  1  0
 15 14  2  0
 15 10  1  0
  1 16  1  0
  1 17  1  0
  2 18  1  0
  2 19  1  0
  4 20  1  0
  4 21  1  0
  4 22  1  0
  5 23  1  0
  5 24  1  0
  5 25  1  0
  9 26  1  0
  9 27  1  0
 11 28  1  0
 12 29  1  0
 13 30  1  0
 14 31  1  0
 15 32  1  0
M  CHG  1   6  -1
M  END
$$$$
=
     RDKit          3D

 19 20  0  0  0  0  0  0  0  0999 V2000
   18.0970   15.0050    4.3000 C   0  0  0  0  0  0  0  0  0  0  0  0
   18.9300   15.1100    3.2270 O   0  0  0  0  0  0  0  0  0  0  0  0
   20.1860   15.4520    3.7180 N   0  0  0  0  0  0  0  0  0  0  0  0
   20.0020   15.5240    5.0540 C   0  0  0  0  0  0  0  0  0  0  0  0
   18.6940   15.2460    5.4430 N   0  0  0  0  0  0  0  0  0  0  0  0
   15.8270   16.4460    5.3630 F   0  0  0  0  0  0  0  0  0  0  0  0
   15.6300   15.3710    4.5850 C   0  0  0  0  0  0  0  0  0  0  0  0
   14.3090   14.9970    4.3260 C   0  0  0  0  0  0  0  0  0  0  0  0
   14.0420   13.8890    3.5250 C   0  0  0  0  0  0  0  0  0  0  0  0
   15.0970   13.1570    2.9870 C   0  0  0  0  0  0  0  0  0  0  0  0
   16.4160   13.5360    3.2500 C   0  0  0  0  0  0  0  0  0  0  0  0
   16.7060   14.6520    4.0560 C   0  0  0  0  0  0  0  0  0  0  0  0
   21.1910   15.8990    6.1100 C   0  0  0  0  0  0  0  0  0  0  0  0
   22.1250   16.6620    5.6980 O   0  0  0  0  0  0  0  0  0  0  0  0
   21.1020   15.3970    7.2790 O   0  0  0  0  0  1  0  0  0  0  0  0
   13.4792   15.5779    4.7549 H   0  0  0  0  0  0  0  0  0  0  0  0
   13.0026   13.5939    3.3186 H   0  0  0  0  0  0  0  0  0  0  0  0
   14.8922   12.2803    2.3549 H   0  0  0  0  0  0  0  0  0  0  0  0
   17.2422   12.9514    2.8192 H   0  0  0  0  0  0  0  0  0  0  0  0
  2  1  1  0
  3  2  1  0
  4  3  2  0
  5  4  1  0
  5  1  2  0
  7  6  1  0
  8  7  2  0
  9  8  1  0
 10  9  2  0
 11 10  1  0
 12  7  1  0
 12 11  2  0
 12  1  1  0
 13  4  1  0
 14 13  2  0
 15 13  1  0
  8 16  1  0
  9 17  1  0
 10 18  1  0
 11 19  1  0
M  CHG  1  15  -1
M  END
$$$$
=
     RDKit          3D

 42 43  0  0  0  0  0  0  0  0999 V2000
   25.0140   27.1450   15.0960 C   0  0  1  0  0  0  0  0  0  0  0  0
   26.3880   27.0090   14.7120 O   0  0  0  0  0  0  0  0  0  0  0  0
   26.5680   27.0100   13.2860 C   0  0  2  0  0  0  0  0  0  0  0  0
   26.0100   25.6840   12.6740 C   0  0  2  0  0  0  0  0  0  0  0  0
   24.7920   25.1930   13.4990 C   0  0  1  0  0  0  0  0  0  0  0  0
   24.0610   26.3470   14.1890 C   0  0  2  0  0  0  0  0  0  0  0  0
   27.0510   24.6460   12.5410 N   0  0  0  0  0  0  0  0  0  0  0  0
   27.1130   23.7700   11.4860 C   0  0  0  0  0  0  0  0  0  0  0  0
   26.1850   23.5760   10.7010 O   0  0  0  0  0  0  0  0  0  0  0  0
   28.4240   23.0390   11.3680 C   0  0  0  0  0  0  0  0  0  0  0  0
   23.5350   27.2140   13.1620 O   0  0  0  0  0  0  0  0  0  0  0  0
   23.8250   24.5530   12.6430 O   0  0  0  0  0  0  0  0  0  0  0  0
   24.9200   26.6830   16.5560 C   0  0  0  0  0  0  0  0  0  0  0  0
   26.0970   26.0010   16.9790 O   0  0  0  0  0  0  0  0  0  0  0  0
   27.9700   27.1470   13.0120 O   0  0  0  0  0  0  0  0  0  0  0  0
   28.6960   27.6220   14.0700 C   0  0  0  0  0  0  0  0  0  0  0  0
   28.7440   29.0100   14.2810 C   0  0  0  0  0  0  0  0  0  0  0  0
   29.4360   29.5410   15.3670 C   0  0  0  0  0  0  0  0  0  0  0  0
   30.0670   28.6850   16.2610 C   0  0  0  0  0  0  0  0  0  0  0  0
   29.9900   27.3030   16.0720 C   0  0  0  0  0  0  0  0  0  0  0  0
   29.2940   26.7370   14.9810 C   0  0  0  0  0  0  0  0  0  0  0  0
   29.2380   25.2240   14.8580 C   0  0  0  0  0  0  0  0  0  0  0  0
   28.3890   24.5850   15.5600 O   0  0  0  0  0  0  0  0  0  0  0  0
   30.0400   24.6810   14.0330 O   0  0  0  0  0  1  0  0  0  0  0  0
   24.6955   28.1923   14.9881 H   0  0  0  0  0  0  0  0  0  0  0  0
   26.0183   27.8470   12.8308 H   0  0  0  0  0  0  0  0  0  0  0  0
   25.6697   25.8950   11.6495 H   0  0  0  0  0  0  0  0  0  0  0  0
   25.1955   24.4968   14.2490 H   0  0  0  0  0  0  0  0  0  0  0  0
   23.2545   25.9449   14.8198 H   0  0  0  0  0  0  0  0  0  0  0  0
   27.7676   24.5754   13.2775 H   0  0  0  0  0  0  0  0  0  0  0  0
   28.8142   22.8214   12.3732 H   0  0  0  0  0  0  0  0  0  0  0  0
   28.2704   22.0963   10.8223 H   0  0  0  0  0  0  0  0  0  0  0  0
   29.1452   23.6652   10.8223 H   0  0  0  0  0  0  0  0  0  0  0  0
   23.0702   27.9801   13.5830 H   0  0  0  0  0  0  0  0  0  0  0  0
   23.1413   24.1005   13.1980 H   0  0  0  0  0  0  0  0  0  0  0  0
   24.7704   27.5637   17.1978 H   0  0  0  0  0  0  0  0  0  0  0  0
   24.0755   25.9828   16.6360 H   0  0  0  0  0  0  0  0  0  0  0  0
   26.1298   25.9820   17.9683 H   0  0  0  0  0  0  0  0  0  0  0  0
   28.2295   29.6848   13.5810 H   0  0  0  0  0  0  0  0  0  0  0  0
   29.4825   30.6299   15.5157 H   0  0  0  0  0  0  0  0  0  0  0  0
   30.6258   29.0944   17.1155 H   0  0  0  0  0  0  0  0  0  0  0  0
   30.4855   26.6366   16.7934 H   0  0  0  0  0  0  0  0  0  0  0  0
  2  1  1  0
  3  2  1  0
  4  3  1  0
  5  4  1  0
  6  5  1  0
  6  1  1  0
  7  4  1  0
  8  7  1  0
  9  8  2  0
 10  8  1  0
 11  6  1  0
 12  5  1  0
 13  1  1  0
 14 13  1  0
 15  3  1  0
 16 15  1  0
 17 16  2  0
 18 17  1  0
 19 18  2  0
 20 19  1  0
 21 20  2  0
 21 16  1  0
 22 21  1  0
 23 22  2  0
 24 22  1  0
  1 25  1  1
  3 26  1  6
  4 27  1  6
  5 28  1  1
  6 29  1  1
  7 30  1  0
 10 31  1  0
 10 32  1  0
 10 33  1  0
 11 34  1  0
 12 35  1  0
 13 36  1  0
 13 37  1  0
 14 38  1  0
 17 39  1  0
 18 40  1  0
 19 41  1  0
 20 42  1  0
M  CHG  1  24  -1
M  END
$$$$
=
     RDKit          3D

 30 31  0  0  0  0  0  0  0  0999 V2000
   15.8320   14.1880    3.5460 C   0  0  0  0  0  0  0  0  0  0  0  0
   14.8700   15.1260    3.9410 C   0  0  0  0  0  0  0  0  0  0  0  0
   15.2380   16.2050    4.7430 C   0  0  0  0  0  0  0  0  0  0  0  0
   16.5660   16.3520    5.1480 C   0  0  0  0  0  0  0  0  0  0  0  0
   17.5510   15.4240    4.7690 C   0  0  0  0  0  0  0  0  0  0  0  0
   17.1630   14.3430    3.9580 C   0  0  0  0  0  0  0  0  0  0  0  0
   18.9550   15.5910    5.1930 C   0  0  0  0  0  0  0  0  0  0  0  0
   19.3890   14.9620    6.3800 C   0  0  0  0  0  0  0  0  0  0  0  0
   20.7170   15.0370    6.8100 C   0  0  0  0  0  0  0  0  0  0  0  0
   21.6480   15.7410    6.0560 C   0  0  0  0  0  0  0  0  0  0  0  0
   21.2450   16.3740    4.8820 C   0  0  0  0  0  0  0  0  0  0  0  0
   19.9070   16.3210    4.4460 C   0  0  0  0  0  0  0  0  0  0  0  0
   19.5530   17.0630    3.1830 C   0  0  0  0  0  0  0  0  0  0  0  0
   19.6230   16.3960    2.1030 O   0  0  0  0  0  0  0  0  0  0  0  0
   19.2440   18.2890    3.2920 O   0  0  0  0  0  1  0  0  0  0  0  0
   15.4940   13.0220    2.6850 C   0  0  0  0  0  0  0  0  0  0  0  0
   16.3110   12.3980    2.0250 O   0  0  0  0  0  0  0  0  0  0  0  0
   13.7850   11.8890    3.8000 C   0  0  0  0  0  0  0  0  0  0  0  0
   14.1610   12.7610    2.7360 O   0  0  0  0  0  0  0  0  0  0  0  0
   13.8246   15.0113    3.6185 H   0  0  0  0  0  0  0  0  0  0  0  0
   14.4825   16.9404    5.0567 H   0  0  0  0  0  0  0  0  0  0  0  0
   16.8467   17.2106    5.7757 H   0  0  0  0  0  0  0  0  0  0  0  0
   17.9164   13.6066    3.6415 H   0  0  0  0  0  0  0  0  0  0  0  0
   18.6624   14.3975    6.9829 H   0  0  0  0  0  0  0  0  0  0  0  0
   21.0240   14.5403    7.7422 H   0  0  0  0  0  0  0  0  0  0  0  0
   22.6964   15.7982    6.3839 H   0  0  0  0  0  0  0  0  0  0  0  0
   21.9859   16.9255    4.2845 H   0  0  0  0  0  0  0  0  0  0  0  0
   13.9947   12.3753    4.7641 H   0  0  0  0  0  0  0  0  0  0  0  0
   12.7104   11.6652    3.7283 H   0  0  0  0  0  0  0  0  0  0  0  0
   14.3599   10.9539    3.7283 H   0  0  0  0  0  0  0  0  0  0  0  0
  2  1  2  0
  3  2  1  0
  4  3  2  0
  5  4  1  0
  6  1  1  0
  6  5  2  0
  7  5  1  0
  8  7  2  0
  9  8  1  0
 10  9  2  0
 11 10  1  0
 12  7  1  0
 12 11  2  0
 13 12  1  0
 14 13  2  0
 15 13  1  0
 16  1  1  0
 17 16  2  0
 19 18  1  0
 19 16  1  0
  2 20  1  0
  3 21  1  0
  4 22  1  0
  6 23  1  0
  8 24  1  0
  9 25  1  0
 10 26  1  0
 11 27  1  0
 18 28  1  0
 18 29  1  0
 18 30  1  0
M  CHG  1  15  -1
M  END
$$$$
=
     RDKit          3D

 44 46  0  0  0  0  0  0  0  0999 V2000
   18.8220   15.0790    5.7220 O   0  0  0  0  0  0  0  0  0  0  0  0
   19.1230   15.2490    4.5410 C   0  0  0  0  0  0  0  0  0  0  0  0
   18.3280   14.9120    3.4680 N   0  0  0  0  0  0  0  0  0  0  0  0
   17.0410   14.3490    3.4610 C   0  0  0  0  0  0  0  0  0  0  0  0
   16.9300   13.0330    3.0040 C   0  0  0  0  0  0  0  0  0  0  0  0
   15.6900   12.3920    2.9610 C   0  0  0  0  0  0  0  0  0  0  0  0
   14.5300   13.0600    3.3710 C   0  0  0  0  0  0  0  0  0  0  0  0
   14.6320   14.3780    3.8510 C   0  0  0  0  0  0  0  0  0  0  0  0
   15.8880   15.0140    3.8780 C   0  0  0  0  0  0  0  0  0  0  0  0
   13.4130   15.1580    4.2810 C   0  0  0  0  0  0  0  0  0  0  0  0
   12.2010   14.2720    4.5610 C   0  0  0  0  0  0  0  0  0  0  0  0
   12.0040   13.2630    3.4370 C   0  0  0  0  0  0  0  0  0  0  0  0
   13.2110   12.3310    3.3390 C   0  0  0  0  0  0  0  0  0  0  0  0
   20.5030   15.8300    4.1320 C   0  0  2  0  0  0  0  0  0  0  0  0
   21.4950   15.7960    5.3170 C   0  0  0  0  0  0  0  0  0  0  0  0
   21.5600   17.1040    6.1170 C   0  0  0  0  0  0  0  0  0  0  0  0
   20.2800   17.9240    6.0260 C   0  0  0  0  0  0  0  0  0  0  0  0
   19.9070   18.2620    4.5800 C   0  0  0  0  0  0  0  0  0  0  0  0
   20.4560   17.2580    3.5550 C   0  0  2  0  0  0  0  0  0  0  0  0
   19.7810   17.4440    2.1870 C   0  0  0  0  0  0  0  0  0  0  0  0
   18.5210   17.4270    2.1860 O   0  0  0  0  0  0  0  0  0  0  0  0
   20.5750   17.6080    1.2130 O   0  0  0  0  0  1  0  0  0  0  0  0
   18.7343   15.0991    2.5402 H   0  0  0  0  0  0  0  0  0  0  0  0
   17.8309   12.4951    2.6739 H   0  0  0  0  0  0  0  0  0  0  0  0
   15.6242   11.3542    2.6022 H   0  0  0  0  0  0  0  0  0  0  0  0
   15.9611   16.0523    4.2338 H   0  0  0  0  0  0  0  0  0  0  0  0
   13.6590   15.7141    5.1976 H   0  0  0  0  0  0  0  0  0  0  0  0
   13.1438   15.8282    3.4514 H   0  0  0  0  0  0  0  0  0  0  0  0
   12.3578   13.7333    5.5072 H   0  0  0  0  0  0  0  0  0  0  0  0
   11.3054   14.9070    4.6288 H   0  0  0  0  0  0  0  0  0  0  0  0
   11.1017   12.6672    3.6390 H   0  0  0  0  0  0  0  0  0  0  0  0
   11.8943   13.8054    2.4863 H   0  0  0  0  0  0  0  0  0  0  0  0
   13.1795   11.6285    4.1849 H   0  0  0  0  0  0  0  0  0  0  0  0
   13.1469   11.8149    2.3697 H   0  0  0  0  0  0  0  0  0  0  0  0
   20.8472   15.1729    3.3198 H   0  0  0  0  0  0  0  0  0  0  0  0
   21.1908   14.9885    5.9992 H   0  0  0  0  0  0  0  0  0  0  0  0
   22.4955   15.6358    4.8888 H   0  0  0  0  0  0  0  0  0  0  0  0
   21.7448   16.8594    7.1734 H   0  0  0  0  0  0  0  0  0  0  0  0
   22.3700   17.7115    5.6872 H   0  0  0  0  0  0  0  0  0  0  0  0
   19.4586   17.3485    6.4778 H   0  0  0  0  0  0  0  0  0  0  0  0
   20.4487   18.8709    6.5597 H   0  0  0  0  0  0  0  0  0  0  0  0
   18.8102   18.2786    4.4981 H   0  0  0  0  0  0  0  0  0  0  0  0
   20.3573   19.2388    4.3495 H   0  0  0  0  0  0  0  0  0  0  0  0
   21.5152   17.4684    3.3456 H   0  0  0  0  0  0  0  0  0  0  0  0
  2  1  2  0
  3  2  1  0
  4  3  1  0
  5  4  2  0
  6  5  1  0
  7  6  2  0
  8  7  1  0
  9  8  2  0
  9  4  1  0
 10  8  1  0
 11 10  1  0
 12 11  1  0
 13 12  1  0
 13  7  1  0
 14  2  1  0
 15 14  1  0
 16 15  1  0
 17 16  1  0
 18 17  1  0
 19 14  1  0
 19 18  1  0
 20 19  1  0
 21 20  2  0
 22 20  1  0
  3 23  1  0
  5 24  1  0
  6 25  1  0
  9 26  1  0
 10 27  1  0
 10 28  1  0
 11 29  1  0
 11 30  1  0
 12 31  1  0
 12 32  1  0
 13 33  1  0
 13 34  1  0
 14 35  1  6
 15 36  1  0
 15 37  1  0
 16 38  1  0
 16 39  1  0
 17 40  1  0
 17 41  1  0
 18 42  1  0
 18 43  1  0
 19 44  1  6
M  CHG  1  22  -1
M  END
$$$$
=
     RDKit          3D

 39 40  0  0  0  0  0  0  0  0999 V2000
   18.4450   14.6330    3.8090 S   0  0  0  0  0  6  0  0  0  0  0  0
   19.0510   13.3510    4.1020 O   0  0  0  0  0  0  0  0  0  0  0  0
   18.8250   15.3780    2.6260 O   0  0  0  0  0  0  0  0  0  0  0  0
   13.9110   14.0170    3.5730 C   0  0  0  0  0  0  0  0  0  0  0  0
   14.4460   15.1510    4.1990 C   0  0  0  0  0  0  0  0  0  0  0  0
   15.8290   15.3360    4.2820 C   0  0  0  0  0  0  0  0  0  0  0  0
   16.6830   14.3890    3.7160 C   0  0  0  0  0  0  0  0  0  0  0  0
   16.1660   13.2470    3.1040 C   0  0  0  0  0  0  0  0  0  0  0  0
   14.7800   13.0640    3.0330 C   0  0  0  0  0  0  0  0  0  0  0  0
   10.2040   13.5970    4.1170 C   0  0  0  0  0  0  0  0  0  0  0  0
   11.6400   13.6620    4.5750 C   0  0  0  0  0  0  0  0  0  0  0  0
   11.9280   13.4800    5.7520 O   0  0  0  0  0  0  0  0  0  0  0  0
   12.5050   13.9180    3.5280 N   0  0  0  0  0  0  0  0  0  0  0  0
   18.5690   15.6480    5.1080 N   0  0  0  0  0  0  0  0  0  0  0  0
   18.8030   17.1140    4.9080 C   0  0  2  0  0  0  0  0  0  0  0  0
   20.2740   17.4820    4.9770 C   0  0  0  0  0  0  0  0  0  0  0  0
   20.8580   18.3810    4.0700 C   0  0  0  0  0  0  0  0  0  0  0  0
   22.2080   18.7220    4.1720 C   0  0  0  0  0  0  0  0  0  0  0  0
   22.9990   18.1570    5.1700 C   0  0  0  0  0  0  0  0  0  0  0  0
   22.4410   17.2440    6.0630 C   0  0  0  0  0  0  0  0  0  0  0  0
   21.0890   16.9080    5.9650 C   0  0  0  0  0  0  0  0  0  0  0  0
   17.9750   17.8770    6.0020 C   0  0  0  0  0  0  0  0  0  0  0  0
   18.4010   19.0520    6.2520 O   0  0  0  0  0  0  0  0  0  0  0  0
   17.0300   17.2340    6.5440 O   0  0  0  0  0  1  0  0  0  0  0  0
   13.7699   15.9041    4.6299 H   0  0  0  0  0  0  0  0  0  0  0  0
   16.2406   16.2209    4.7894 H   0  0  0  0  0  0  0  0  0  0  0  0
   16.8449   12.4931    2.6788 H   0  0  0  0  0  0  0  0  0  0  0  0
   14.3718   12.1644    2.5491 H   0  0  0  0  0  0  0  0  0  0  0  0
    9.5405   13.5670    4.9938 H   0  0  0  0  0  0  0  0  0  0  0  0
    9.9716   14.4855    3.5116 H   0  0  0  0  0  0  0  0  0  0  0  0
   10.0529   12.6911    3.5116 H   0  0  0  0  0  0  0  0  0  0  0  0
   12.0706   14.0527    2.6039 H   0  0  0  0  0  0  0  0  0  0  0  0
   17.6897   15.5590    5.6369 H   0  0  0  0  0  0  0  0  0  0  0  0
   18.4740   17.4023    3.8987 H   0  0  0  0  0  0  0  0  0  0  0  0
   20.2448   18.8216    3.2700 H   0  0  0  0  0  0  0  0  0  0  0  0
   22.6481   19.4384    3.4627 H   0  0  0  0  0  0  0  0  0  0  0  0
   24.0612   18.4308    5.2530 H   0  0  0  0  0  0  0  0  0  0  0  0
   23.0656   16.7879    6.8452 H   0  0  0  0  0  0  0  0  0  0  0  0
   20.6571   16.1839    6.6715 H   0  0  0  0  0  0  0  0  0  0  0  0
  2  1  2  0
  3  1  2  0
  5  4  2  0
  6  5  1  0
  7  6  2  0
  7  1  1  0
  8  7  1  0
  9  8  2  0
  9  4  1  0
 11 10  1  0
 12 11  2  0
 13 11  1  0
 13  4  1  0
 14  1  1  0
 15 14  1  0
 16 15  1  0
 17 16  2  0
 18 17  1  0
 19 18  2  0
 20 19  1  0
 21 16  1  0
 21 20  2  0
 22 15  1  0
 23 22  2  0
 24 22  1  0
  5 25  1  0
  6 26  1  0
  8 27  1  0
  9 28  1  0
 10 29  1  0
 10 30  1  0
 10 31  1  0
 13 32  1  0
 14 33  1  0
 15 34  1  6
 17 35  1  0
 18 36  1  0
 19 37  1  0
 20 38  1  0
 21 39  1  0
M  CHG  1  24  -1
M  END
$$$$
=
     RDKit          3D

 21 21  0  0  0  0  0  0  0  0999 V2000
   15.7880   14.8790    4.1480 C   0  0  0  0  0  0  0  0  0  0  0  0
   15.4680   15.8380    5.1010 C   0  0  0  0  0  0  0  0  0  0  0  0
   16.4400   16.7420    5.5500 C   0  0  0  0  0  0  0  0  0  0  0  0
   17.7620   16.7050    5.0680 C   0  0  0  0  0  0  0  0  0  0  0  0
   18.0780   15.7580    4.0590 C   0  0  0  0  0  0  0  0  0  0  0  0
   17.0850   14.8500    3.6330 C   0  0  0  0  0  0  0  0  0  0  0  0
   19.4420   15.6900    3.3930 C   0  0  0  0  0  0  0  0  0  0  0  0
   19.6160   16.4020    2.3570 O   0  0  0  0  0  0  0  0  0  0  0  0
   20.3120   14.9340    3.9280 O   0  0  0  0  0  1  0  0  0  0  0  0
   15.5190   12.9130    2.8450 C   0  0  0  0  0  0  0  0  0  0  0  0
   14.9360   13.9410    3.6330 O   0  0  0  0  0  0  0  0  0  0  0  0
   18.8260   17.6720    5.5530 C   0  0  0  0  0  0  0  0  0  0  0  0
   18.1880   19.1020    6.4300 Cl  0  0  0  0  0  0  0  0  0  0  0  0
   14.4462   15.8879    5.5052 H   0  0  0  0  0  0  0  0  0  0  0  0
   16.1630   17.4996    6.2979 H   0  0  0  0  0  0  0  0  0  0  0  0
   17.3407   14.0973    2.8727 H   0  0  0  0  0  0  0  0  0  0  0  0
   15.9533   12.1472    3.5045 H   0  0  0  0  0  0  0  0  0  0  0  0
   14.7463   12.4548    2.2102 H   0  0  0  0  0  0  0  0  0  0  0  0
   16.3088   13.3409    2.2102 H   0  0  0  0  0  0  0  0  0  0  0  0
   19.5023   17.1280    6.2288 H   0  0  0  0  0  0  0  0  0  0  0  0
   19.3324   18.0559    4.6552 H   0  0  0  0  0  0  0  0  0  0  0  0
  2  1  2  0
  3  2  1  0
  4  3  2  0
  5  4  1  0
  6  1  1  0
  6  5  2  0
  7  5  1  0
  8  7  2  0
  9  7  1  0
 11 10  1  0
 11  1  1  0
 12  4  1  0
 13 12  1  0
  2 14  1  0
  3 15  1  0
  6 16  1  0
 10 17  1  0
 10 18  1  0
 10 19  1  0
 12 20  1  0
 12 21  1  0
M  CHG  1   9  -1
M  END
$$$$
=
     RDKit          3D

 29 30  0  0  0  0  0  0  0  0999 V2000
   17.7750   15.2630    4.2490 C   0  0  0  0  0  0  0  0  0  0  0  0
   17.0100   16.1260    5.0170 C   0  0  0  0  0  0  0  0  0  0  0  0
   15.6350   15.9290    5.0750 C   0  0  0  0  0  0  0  0  0  0  0  0
   15.0600   14.8640    4.3750 C   0  0  0  0  0  0  0  0  0  0  0  0
   15.9170   14.0250    3.6340 C   0  0  0  0  0  0  0  0  0  0  0  0
   17.2450   14.2120    3.5760 N   0  0  0  0  0  0  0  0  0  0  0  0
   15.3510   12.9630    2.9400 C   0  0  0  0  0  0  0  0  0  0  0  0
   13.9730   12.7190    2.9610 C   0  0  0  0  0  0  0  0  0  0  0  0
   13.1340   13.5530    3.6920 C   0  0  0  0  0  0  0  0  0  0  0  0
   13.6750   14.6240    4.4000 C   0  0  0  0  0  0  0  0  0  0  0  0
   19.5430   15.4400    4.1550 S   0  0  0  0  0  0  0  0  0  0  0  0
   19.8250   16.5130    5.6330 C   0  0  1  0  0  0  0  0  0  0  0  0
   20.9510   15.8120    6.4300 C   0  0  0  0  0  0  0  0  0  0  0  0
   20.7300   14.6270    6.8140 O   0  0  0  0  0  0  0  0  0  0  0  0
   22.0030   16.5030    6.5890 O   0  0  0  0  0  1  0  0  0  0  0  0
   20.2340   18.0080    3.6330 C   0  0  0  0  0  0  0  0  0  0  0  0
   20.1840   17.9210    5.1540 C   0  0  0  0  0  0  0  0  0  0  0  0
   17.4817   16.9514    5.5704 H   0  0  0  0  0  0  0  0  0  0  0  0
   15.0034   16.6068    5.6679 H   0  0  0  0  0  0  0  0  0  0  0  0
   16.0037   12.2956    2.3581 H   0  0  0  0  0  0  0  0  0  0  0  0
   13.5547   11.8698    2.4008 H   0  0  0  0  0  0  0  0  0  0  0  0
   12.0498   13.3682    3.7111 H   0  0  0  0  0  0  0  0  0  0  0  0
   13.0153   15.2850    4.9813 H   0  0  0  0  0  0  0  0  0  0  0  0
   18.9456   16.6361    6.2822 H   0  0  0  0  0  0  0  0  0  0  0  0
   20.7617   18.9261    3.3354 H   0  0  0  0  0  0  0  0  0  0  0  0
   20.7669   17.1328    3.2330 H   0  0  0  0  0  0  0  0  0  0  0  0
   19.2095   18.0278    3.2330 H   0  0  0  0  0  0  0  0  0  0  0  0
   21.1699   18.1937    5.5585 H   0  0  0  0  0  0  0  0  0  0  0  0
   19.4049   18.6113    5.5097 H   0  0  0  0  0  0  0  0  0  0  0  0
  2  1  2  0
  3  2  1  0
  4  3  2  0
  5  4  1  0
  6  5  2  0
  6  1  1  0
  7  5  1  0
  8  7  2  0
  9  8  1  0
 10  9  2  0
 10  4  1  0
 11  1  1  0
 12 11  1  0
 13 12  1  0
 14 13  2  0
 15 13  1  0
 17 16  1  0
 17 12  1  0
  2 18  1  0
  3 19  1  0
  7 20  1  0
  8 21  1  0
  9 22  1  0
 10 23  1  0
 12 24  1  1
 16 25  1  0
 16 26  1  0
 16 27  1  0
 17 28  1  0
 17 29  1  0
M  CHG  1  15  -1
M  END
$$$$
=
     RDKit          3D

 21 21  0  0  0  0  0  0  0  0999 V2000
   18.5620   17.0900    5.1080 C   0  0  0  0  0  0  0  0  0  0  0  0
   17.6010   16.8910    6.1100 C   0  0  0  0  0  0  0  0  0  0  0  0
   16.5130   16.0420    5.9050 C   0  0  0  0  0  0  0  0  0  0  0  0
   16.3760   15.3690    4.6960 C   0  0  0  0  0  0  0  0  0  0  0  0
   17.3260   15.5500    3.6890 C   0  0  0  0  0  0  0  0  0  0  0  0
   18.4220   16.4090    3.8810 C   0  0  0  0  0  0  0  0  0  0  0  0
   19.4130   16.5950    2.7640 C   0  0  0  0  0  0  0  0  0  0  0  0
   20.9380   17.5470    5.7890 C   0  0  0  0  0  0  0  0  0  0  0  0
   19.7260   17.9480    5.3750 C   0  0  0  0  0  0  0  0  0  0  0  0
   21.1490   15.7370    7.2760 O   0  0  0  0  0  1  0  0  0  0  0  0
   21.3540   16.1130    6.0870 C   0  0  0  0  0  0  0  0  0  0  0  0
   21.7760   15.4670    5.0870 O   0  0  0  0  0  0  0  0  0  0  0  0
   17.7068   17.4125    7.0727 H   0  0  0  0  0  0  0  0  0  0  0  0
   15.7642   15.9052    6.6991 H   0  0  0  0  0  0  0  0  0  0  0  0
   15.5214   14.6958    4.5334 H   0  0  0  0  0  0  0  0  0  0  0  0
   17.2156   15.0144    2.7346 H   0  0  0  0  0  0  0  0  0  0  0  0
   20.4111   16.7823    3.1867 H   0  0  0  0  0  0  0  0  0  0  0  0
   19.4418   15.6866    2.1444 H   0  0  0  0  0  0  0  0  0  0  0  0
   19.1105   17.4520    2.1444 H   0  0  0  0  0  0  0  0  0  0  0  0
   21.7018   18.3267    5.9257 H   0  0  0  0  0  0  0  0  0  0  0  0
   19.5894   19.0284    5.2196 H   0  0  0  0  0  0  0  0  0  0  0  0
  2  1  2  0
  3  2  1  0
  4  3  2  0
  5  4  1  0
  6  5  2  0
  6  1  1  0
  7  6  1  0
  9  1  1  0
  9  8  2  0
 11 10  1  0
 11  8  1  0
 12 11  2  0
  2 13  1  0
  3 14  1  0
  4 15  1  0
  5 16  1  0
  7 17  1  0
  7 18  1  0
  7 19  1  0
  8 20  1  0
  9 21  1  0
M  CHG  1  10  -1
M  END
$$$$
=
     RDKit          3D

 37 39  0  0  0  0  0  0  0  0999 V2000
   19.0940   15.9870    4.4900 N   0  0  0  0  0  0  0  0  0  0  0  0
   19.6240   16.9440    3.6520 C   0  0  0  0  0  0  0  0  0  0  0  0
   19.0450   17.7310    2.9160 O   0  0  0  0  0  0  0  0  0  0  0  0
   21.1270   16.9200    3.7880 C   0  0  2  0  0  0  0  0  0  0  0  0
   21.3580   16.1340    5.0730 C   0  0  2  0  0  0  0  0  0  0  0  0
   20.0620   15.3950    5.2680 C   0  0  0  0  0  0  0  0  0  0  0  0
   19.9820   14.4280    6.0140 O   0  0  0  0  0  0  0  0  0  0  0  0
   21.6570   17.0370    6.2670 C   0  0  0  0  0  0  0  0  0  0  0  0
   22.8820   17.9170    6.0220 C   0  0  0  0  0  0  0  0  0  0  0  0
   23.0500   18.3460    4.5640 C   0  0  0  0  0  0  0  0  0  0  0  0
   21.7300   18.3250    3.8010 C   0  0  0  0  0  0  0  0  0  0  0  0
   16.0690   14.0030    3.5390 C   0  0  0  0  0  0  0  0  0  0  0  0
   15.1080   14.5550    4.3910 C   0  0  0  0  0  0  0  0  0  0  0  0
   15.4330   15.6080    5.2440 C   0  0  0  0  0  0  0  0  0  0  0  0
   16.7340   16.1460    5.2760 C   0  0  0  0  0  0  0  0  0  0  0  0
   17.7320   15.5780    4.4530 C   0  0  0  0  0  0  0  0  0  0  0  0
   17.3700   14.5380    3.5730 C   0  0  0  0  0  0  0  0  0  0  0  0
   16.9500   17.3360    6.1700 C   0  0  0  0  0  0  0  0  0  0  0  0
   16.6930   12.2250    2.0840 O   0  0  0  0  0  1  0  0  0  0  0  0
   15.7240   12.8420    2.6280 C   0  0  0  0  0  0  0  0  0  0  0  0
   14.4910   12.5630    2.4870 O   0  0  0  0  0  0  0  0  0  0  0  0
   21.6326   16.4491    2.9321 H   0  0  0  0  0  0  0  0  0  0  0  0
   22.2343   15.4732    4.9995 H   0  0  0  0  0  0  0  0  0  0  0  0
   20.7860   17.6830    6.4515 H   0  0  0  0  0  0  0  0  0  0  0  0
   21.8657   16.3958    7.1361 H   0  0  0  0  0  0  0  0  0  0  0  0
   22.7893   18.8213    6.6414 H   0  0  0  0  0  0  0  0  0  0  0  0
   23.7659   17.3170    6.2841 H   0  0  0  0  0  0  0  0  0  0  0  0
   23.4566   19.3678    4.5401 H   0  0  0  0  0  0  0  0  0  0  0  0
   23.7317   17.6321    4.0786 H   0  0  0  0  0  0  0  0  0  0  0  0
   21.9080   18.6497    2.7652 H   0  0  0  0  0  0  0  0  0  0  0  0
   21.0248   19.0045    4.3020 H   0  0  0  0  0  0  0  0  0  0  0  0
   14.0838   14.1537    4.3881 H   0  0  0  0  0  0  0  0  0  0  0  0
   14.6592   16.0265    5.9043 H   0  0  0  0  0  0  0  0  0  0  0  0
   18.1301   14.1310    2.8899 H   0  0  0  0  0  0  0  0  0  0  0  0
   16.8926   17.0196    7.2219 H   0  0  0  0  0  0  0  0  0  0  0  0
   17.9414   17.7690    5.9710 H   0  0  0  0  0  0  0  0  0  0  0  0
   16.1740   18.0898    5.9710 H   0  0  0  0  0  0  0  0  0  0  0  0
  2  1  1  0
  3  2  2  0
  4  2  1  0
  5  4  1  0
  6  5  1  0
  6  1  1  0
  7  6  2  0
  8  5  1  0
  9  8  1  0
 10  9  1  0
 11  4  1  0
 11 10  1  0
 13 12  2  0
 14 13  1  0
 15 14  2  0
 16 15  1  0
 16  1  1  0
 17 12  1  0
 17 16  2  0
 18 15  1  0
 20 12  1  0
 20 19  1  0
 21 20  2  0
  4 22  1  6
  5 23  1  6
  8 24  1  0
  8 25  1  0
  9 26  1  0
  9 27  1  0
 10 28  1  0
 10 29  1  0
 11 30  1  0
 11 31  1  0
 13 32  1  0
 14 33  1  0
 17 34  1  0
 18 35  1  0
 18 36  1  0
 18 37  1  0
M  CHG  1  19  -1
M  END
$$$$
=
     RDKit          3D

 40 41  0  0  0  0  0  0  0  0999 V2000
   17.2700   15.1720    5.0060 C   0  0  1  0  0  0  0  0  0  0  0  0
   19.7140   14.3740    6.4070 O   0  0  0  0  0  0  0  0  0  0  0  0
   19.7600   15.1910    5.4910 C   0  0  0  0  0  0  0  0  0  0  0  0
   18.6800   15.5480    4.7330 N   0  0  0  0  0  0  0  0  0  0  0  0
   21.0500   15.8980    5.0670 C   0  0  0  0  0  0  0  0  0  0  0  0
   21.7430   16.5700    6.2660 C   0  0  0  0  0  0  0  0  0  0  0  0
   22.7260   17.6410    5.8110 C   0  0  0  0  0  0  0  0  0  0  0  0
   22.0240   18.7700    5.0570 C   0  0  0  0  0  0  0  0  0  0  0  0
   20.7270   18.3310    4.3780 C   0  0  0  0  0  0  0  0  0  0  0  0
   20.7890   16.8820    3.9070 C   0  0  0  0  0  0  0  0  0  0  0  0
   16.7420   15.9750    6.2490 C   0  0  0  0  0  0  0  0  0  0  0  0
   17.0570   17.2090    6.2260 O   0  0  0  0  0  0  0  0  0  0  0  0
   16.0850   15.3360    7.1160 O   0  0  0  0  0  1  0  0  0  0  0  0
   16.3680   15.4540    3.7960 C   0  0  0  0  0  0  0  0  0  0  0  0
   15.2000   14.4940    3.6810 C   0  0  0  0  0  0  0  0  0  0  0  0
   15.3540   13.2640    3.0300 C   0  0  0  0  0  0  0  0  0  0  0  0
   14.2770   12.3820    2.9190 C   0  0  0  0  0  0  0  0  0  0  0  0
   13.0370   12.7240    3.4520 C   0  0  0  0  0  0  0  0  0  0  0  0
   12.8690   13.9510    4.0910 C   0  0  0  0  0  0  0  0  0  0  0  0
   13.9460   14.8340    4.2020 C   0  0  0  0  0  0  0  0  0  0  0  0
   17.2401   14.0919    5.2121 H   0  0  0  0  0  0  0  0  0  0  0  0
   18.8599   16.1277    3.9009 H   0  0  0  0  0  0  0  0  0  0  0  0
   21.7481   15.1367    4.6887 H   0  0  0  0  0  0  0  0  0  0  0  0
   20.9790   17.0344    6.9068 H   0  0  0  0  0  0  0  0  0  0  0  0
   22.3011   15.8003    6.8193 H   0  0  0  0  0  0  0  0  0  0  0  0
   23.2291   18.0613    6.6943 H   0  0  0  0  0  0  0  0  0  0  0  0
   23.4513   17.1729    5.1293 H   0  0  0  0  0  0  0  0  0  0  0  0
   21.7893   19.5732    5.7711 H   0  0  0  0  0  0  0  0  0  0  0  0
   22.7084   19.1059    4.2640 H   0  0  0  0  0  0  0  0  0  0  0  0
   19.8985   18.4363    5.0939 H   0  0  0  0  0  0  0  0  0  0  0  0
   20.5741   18.9684    3.4946 H   0  0  0  0  0  0  0  0  0  0  0  0
   21.6006   16.7840    3.1710 H   0  0  0  0  0  0  0  0  0  0  0  0
   19.8132   16.6302    3.4661 H   0  0  0  0  0  0  0  0  0  0  0  0
   15.9720   16.4762    3.8866 H   0  0  0  0  0  0  0  0  0  0  0  0
   16.9843   15.3263    2.8938 H   0  0  0  0  0  0  0  0  0  0  0  0
   16.3302   12.9905    2.6030 H   0  0  0  0  0  0  0  0  0  0  0  0
   14.4085   11.4158    2.4098 H   0  0  0  0  0  0  0  0  0  0  0  0
   12.1907   12.0263    3.3688 H   0  0  0  0  0  0  0  0  0  0  0  0
   11.8885   14.2243    4.5080 H   0  0  0  0  0  0  0  0  0  0  0  0
   13.8075   15.8037    4.7026 H   0  0  0  0  0  0  0  0  0  0  0  0
  3  2  2  0
  4  1  1  0
  4  3  1  0
  5  3  1  0
  6  5  1  0
  7  6  1  0
  8  7  1  0
  9  8  1  0
 10  5  1  0
 10  9  1  0
 11  1  1  0
 12 11  2  0
 13 11  1  0
 14  1  1  0
 15 14  1  0
 16 15  2  0
 17 16  1  0
 18 17  2  0
 19 18  1  0
 20 19  2  0
 20 15  1  0
  1 21  1  1
  4 22  1  0
  5 23  1  0
  6 24  1  0
  6 25  1  0
  7 26  1  0
  7 27  1  0
  8 28  1  0
  8 29  1  0
  9 30  1  0
  9 31  1  0
 10 32  1  0
 10 33  1  0
 14 34  1  0
 14 35  1  0
 16 36  1  0
 17 37  1  0
 18 38  1  0
 19 39  1  0
 20 40  1  0
M  CHG  1  13  -1
M  END
$$$$
=
     RDKit          3D

 28 29  0  0  0  0  0  0  0  0999 V2000
   17.9520   15.2700    4.1710 N   0  0  0  0  0  0  0  0  0  0  0  0
   16.7280   15.7360    4.6080 C   0  0  0  0  0  0  0  0  0  0  0  0
   16.3950   16.6750    5.3130 O   0  0  0  0  0  0  0  0  0  0  0  0
   15.7460   14.7720    4.1140 C   0  0  0  0  0  0  0  0  0  0  0  0
   16.4210   13.7690    3.4450 C   0  0  0  0  0  0  0  0  0  0  0  0
   17.8510   14.0690    3.4970 C   0  0  0  0  0  0  0  0  0  0  0  0
   18.6830   13.2880    3.0610 O   0  0  0  0  0  0  0  0  0  0  0  0
   15.7570   12.6970    2.8760 C   0  0  0  0  0  0  0  0  0  0  0  0
   14.3640   12.6620    2.9980 C   0  0  0  0  0  0  0  0  0  0  0  0
   13.6750   13.6860    3.6800 C   0  0  0  0  0  0  0  0  0  0  0  0
   14.3690   14.7580    4.2500 C   0  0  0  0  0  0  0  0  0  0  0  0
   19.1360   16.0310    4.3200 N   0  0  0  0  0  0  0  0  0  0  0  0
   19.5040   16.1890    5.7650 C   0  0  0  0  0  0  0  0  0  0  0  0
   21.1900   15.4570    7.3310 O   0  0  0  0  0  1  0  0  0  0  0  0
   20.9400   15.6600    6.1040 C   0  0  0  0  0  0  0  0  0  0  0  0
   21.6990   15.4050    5.1110 O   0  0  0  0  0  0  0  0  0  0  0  0
   18.9890   17.3560    3.6510 C   0  0  0  0  0  0  0  0  0  0  0  0
   20.1420   17.6790    2.6630 C   0  0  0  0  0  0  0  0  0  0  0  0
   21.2190   18.1000    3.1870 O   0  0  0  0  0  0  0  0  0  0  0  0
   19.8480   17.6140    1.4290 O   0  0  0  0  0  1  0  0  0  0  0  0
   16.3038   11.9022    2.3476 H   0  0  0  0  0  0  0  0  0  0  0  0
   13.8000   11.8268    2.5572 H   0  0  0  0  0  0  0  0  0  0  0  0
   12.5792   13.6411    3.7646 H   0  0  0  0  0  0  0  0  0  0  0  0
   13.8402   15.5598    4.7862 H   0  0  0  0  0  0  0  0  0  0  0  0
   19.4566   17.2575    6.0219 H   0  0  0  0  0  0  0  0  0  0  0  0
   18.7909   15.5885    6.3488 H   0  0  0  0  0  0  0  0  0  0  0  0
   18.0405   17.3620    3.0939 H   0  0  0  0  0  0  0  0  0  0  0  0
   19.0128   18.1224    4.4397 H   0  0  0  0  0  0  0  0  0  0  0  0
  2  1  1  0
  3  2  2  0
  4  2  1  0
  5  4  2  0
  6  5  1  0
  6  1  1  0
  7  6  2  0
  8  5  1  0
  9  8  2  0
 10  9  1  0
 11 10  2  0
 11  4  1  0
 12  1  1  0
 13 12  1  0
 15 14  1  0
 15 13  1  0
 16 15  2  0
 17 12  1  0
 18 17  1  0
 19 18  2  0
 20 18  1  0
  8 21  1  0
  9 22  1  0
 10 23  1  0
 11 24  1  0
 13 25  1  0
 13 26  1  0
 17 27  1  0
 17 28  1  0
M  CHG  2  14  -1  20  -1
M  END
$$$$
=
     RDKit          3D

 37 40  0  0  0  0  0  0  0  0999 V2000
   23.9710   26.4940   14.5610 C   0  0  0  0  0  0  0  0  0  0  0  0
   24.0200   27.4210   15.5080 N   0  0  0  0  0  0  0  0  0  0  0  0
   25.3500   27.8110   15.6810 N   0  0  0  0  0  0  0  0  0  0  0  0
   26.0490   27.1370   14.8000 C   0  0  0  0  0  0  0  0  0  0  0  0
   25.2200   26.3360   14.0540 N   0  0  0  0  0  0  0  0  0  0  0  0
   25.9270   25.7310   13.0260 C   0  0  0  0  0  0  0  0  0  0  0  0
   25.5110   24.9510   11.9720 C   0  0  0  0  0  0  0  0  0  0  0  0
   26.4970   24.5530   11.0680 C   0  0  0  0  0  0  0  0  0  0  0  0
   27.8380   24.9640   11.2270 C   0  0  0  0  0  0  0  0  0  0  0  0
   28.2270   25.7820   12.2970 C   0  0  0  0  0  0  0  0  0  0  0  0
   27.2650   26.1570   13.2140 C   0  0  0  0  0  0  0  0  0  0  0  0
   27.3400   27.0260   14.3510 N   0  0  0  0  0  0  0  0  0  0  0  0
   28.4570   27.6490   14.9580 C   0  0  0  0  0  0  0  0  0  0  0  0
   29.3990   26.9060   15.6900 C   0  0  0  0  0  0  0  0  0  0  0  0
   30.5010   27.5180   16.2960 C   0  0  0  0  0  0  0  0  0  0  0  0
   30.6930   28.8900   16.1720 C   0  0  0  0  0  0  0  0  0  0  0  0
   29.7880   29.6460   15.4350 C   0  0  0  0  0  0  0  0  0  0  0  0
   28.6860   29.0290   14.8330 C   0  0  0  0  0  0  0  0  0  0  0  0
   22.5220   25.7590   13.9770 S   0  0  0  0  0  0  0  0  0  0  0  0
   22.3720   24.1920   14.9080 C   0  0  2  0  0  0  0  0  0  0  0  0
   21.7520   23.1390   13.9990 C   0  0  0  0  0  0  0  0  0  0  0  0
   22.2120   24.9590   17.1320 O   0  0  0  0  0  1  0  0  0  0  0  0
   21.5450   24.4460   16.1830 C   0  0  0  0  0  0  0  0  0  0  0  0
   20.3420   24.0630   16.1710 O   0  0  0  0  0  0  0  0  0  0  0  0
   24.4583   24.6569   11.8484 H   0  0  0  0  0  0  0  0  0  0  0  0
   26.2250   23.9092   10.2186 H   0  0  0  0  0  0  0  0  0  0  0  0
   28.5926   24.6360   10.4970 H   0  0  0  0  0  0  0  0  0  0  0  0
   29.2697   26.1159   12.4032 H   0  0  0  0  0  0  0  0  0  0  0  0
   29.2666   25.8185   15.7886 H   0  0  0  0  0  0  0  0  0  0  0  0
   31.2171   26.9132   16.8717 H   0  0  0  0  0  0  0  0  0  0  0  0
   31.5553   29.3740   16.6539 H   0  0  0  0  0  0  0  0  0  0  0  0
   29.9387   30.7301   15.3252 H   0  0  0  0  0  0  0  0  0  0  0  0
   27.9822   29.6392   14.2479 H   0  0  0  0  0  0  0  0  0  0  0  0
   23.3554   23.8151   15.2257 H   0  0  0  0  0  0  0  0  0  0  0  0
   21.2887   22.3521   14.6123 H   0  0  0  0  0  0  0  0  0  0  0  0
   20.9858   23.6079   13.3641 H   0  0  0  0  0  0  0  0  0  0  0  0
   22.5337   22.6965   13.3641 H   0  0  0  0  0  0  0  0  0  0  0  0
  2  1  2  0
  3  2  1  0
  4  3  2  0
  5  4  1  0
  5  1  1  0
  6  5  1  0
  7  6  2  0
  8  7  1  0
  9  8  2  0
 10  9  1  0
 11  6  1  0
 11 10  2  0
 12  4  1  0
 12 11  1  0
 13 12  1  0
 14 13  2  0
 15 14  1  0
 16 15  2  0
 17 16  1  0
 18 17  2  0
 18 13  1  0
 19  1  1  0
 20 19  1  0
 21 20  1  0
 23 20  1  0
 23 22  1  0
 24 23  2  0
  7 25  1  0
  8 26  1  0
  9 27  1  0
 10 28  1  0
 14 29  1  0
 15 30  1  0
 16 31  1  0
 17 32  1  0
 18 33  1  0
 20 34  1  1
 21 35  1  0
 21 36  1  0
 21 37  1  0
M  CHG  1  22  -1
M  END
$$$$
=
     RDKit          3D

 32 32  0  0  0  0  0  0  0  0999 V2000
   20.4240   16.2160    5.2130 C   0  0  2  0  0  0  0  0  0  0  0  0
   21.4000   16.1990    6.4090 C   0  0  0  0  0  0  0  0  0  0  0  0
   22.3800   16.9920    6.3400 O   0  0  0  0  0  0  0  0  0  0  0  0
   21.0890   15.3840    7.3250 O   0  0  0  0  0  1  0  0  0  0  0  0
   20.1020   17.6370    4.7340 C   0  0  0  0  0  0  0  0  0  0  0  0
   19.6040   17.5470    2.2620 C   0  0  0  0  0  0  0  0  0  0  0  0
   20.6330   17.9110    3.3220 C   0  0  0  0  0  0  0  0  0  0  0  0
   19.1810   15.4590    5.7200 C   0  0  0  0  0  0  0  0  0  0  0  0
   17.8670   15.8480    5.0340 C   0  0  0  0  0  0  0  0  0  0  0  0
   17.3900   14.8560    3.9740 C   0  0  0  0  0  0  0  0  0  0  0  0
   15.8930   15.1230    3.8330 C   0  0  0  0  0  0  0  0  0  0  0  0
   15.4730   15.8870    5.0880 C   0  0  0  0  0  0  0  0  0  0  0  0
   16.6880   15.8750    6.0040 C   0  0  0  0  0  0  0  0  0  0  0  0
   20.8568   15.7382    4.3217 H   0  0  0  0  0  0  0  0  0  0  0  0
   19.0102   17.7708    4.7332 H   0  0  0  0  0  0  0  0  0  0  0  0
   20.5934   18.3423    5.4204 H   0  0  0  0  0  0  0  0  0  0  0  0
   18.6749   17.2183    2.7505 H   0  0  0  0  0  0  0  0  0  0  0  0
   19.3971   18.4265    1.6346 H   0  0  0  0  0  0  0  0  0  0  0  0
   19.9961   16.7330    1.6346 H   0  0  0  0  0  0  0  0  0  0  0  0
   21.5417   17.3130    3.1590 H   0  0  0  0  0  0  0  0  0  0  0  0
   20.8526   18.9855    3.2370 H   0  0  0  0  0  0  0  0  0  0  0  0
   19.3459   14.3835    5.5585 H   0  0  0  0  0  0  0  0  0  0  0  0
   19.0672   15.7264    6.7809 H   0  0  0  0  0  0  0  0  0  0  0  0
   18.1182   16.8284    4.6030 H   0  0  0  0  0  0  0  0  0  0  0  0
   17.9064   15.0319    3.0188 H   0  0  0  0  0  0  0  0  0  0  0  0
   17.6004   13.8140    4.2568 H   0  0  0  0  0  0  0  0  0  0  0  0
   15.6970   15.7280    2.9355 H   0  0  0  0  0  0  0  0  0  0  0  0
   15.3279   14.1851    3.7283 H   0  0  0  0  0  0  0  0  0  0  0  0
   15.1953   16.9204    4.8329 H   0  0  0  0  0  0  0  0  0  0  0  0
   14.5975   15.4267    5.5692 H   0  0  0  0  0  0  0  0  0  0  0  0
   16.7160   16.7780    6.6315 H   0  0  0  0  0  0  0  0  0  0  0  0
   16.6890   15.0252    6.7025 H   0  0  0  0  0  0  0  0  0  0  0  0
  2  1  1  0
  3  2  2  0
  4  2  1  0
  5  1  1  0
  7  6  1  0
  7  5  1  0
  8  1  1  0
  9  8  1  0
 10  9  1  0
 11 10  1  0
 12 11  1  0
 13 12  1  0
 13  9  1  0
  1 14  1  6
  5 15  1  0
  5 16  1  0
  6 17  1  0
  6 18  1  0
  6 19  1  0
  7 20  1  0
  7 21  1  0
  8 22  1  0
  8 23  1  0
  9 24  1  0
 10 25  1  0
 10 26  1  0
 11 27  1  0
 11 28  1  0
 12 29  1  0
 12 30  1  0
 13 31  1  0
 13 32  1  0
M  CHG  1   4  -1
M  END
$$$$
=
     RDKit          3D

 69 72  0  0  0  0  0  0  0  0999 V2000
   24.6770   26.1550   13.8830 N   0  0  0  0  0  0  0  0  0  0  0  0
   25.1100   27.0310   14.8290 C   0  0  0  0  0  0  0  0  0  0  0  0
   24.4390   27.4910   15.7420 O   0  0  0  0  0  0  0  0  0  0  0  0
   23.5290   25.2800   14.0950 C   0  0  1  0  0  0  0  0  0  0  0  0
   22.5620   25.3330   12.8750 C   0  0  2  0  0  0  0  0  0  0  0  0
   21.5430   26.4920   13.0170 C   0  0  0  0  0  0  0  0  0  0  0  0
   20.1880   26.0000   13.5010 C   0  0  0  0  0  0  0  0  0  0  0  0
   19.6010   25.0280   12.4880 C   0  0  0  0  0  0  0  0  0  0  0  0
   20.5750   24.0750   11.9750 N   0  0  0  0  0  0  0  0  0  0  0  0
   21.8610   23.9710   12.6620 C   0  0  0  0  0  0  0  0  0  0  0  0
   20.1970   23.0900   11.0760 C   0  0  0  0  0  0  0  0  0  0  0  0
   20.9000   22.1450   10.7440 O   0  0  0  0  0  0  0  0  0  0  0  0
   18.9340   23.2950   10.6080 O   0  0  0  0  0  0  0  0  0  0  0  0
   17.8710   22.3510   10.8900 C   0  0  0  0  0  0  0  0  0  0  0  0
   16.5840   23.1880   10.8240 C   0  0  0  0  0  0  0  0  0  0  0  0
   17.7940   21.2560    9.8200 C   0  0  0  0  0  0  0  0  0  0  0  0
   18.0010   21.7690   12.3020 C   0  0  0  0  0  0  0  0  0  0  0  0
   24.0240   23.8710   14.4510 C   0  0  0  0  0  0  0  0  0  0  0  0
   25.6850   23.2970   12.8820 O   0  0  0  0  0  1  0  0  0  0  0  0
   25.4830   23.5760   14.0950 C   0  0  0  0  0  0  0  0  0  0  0  0
   26.3040   23.6220   15.0570 O   0  0  0  0  0  0  0  0  0  0  0  0
   26.4180   27.3040   14.6090 O   0  0  0  0  0  0  0  0  0  0  0  0
   26.8510   27.1930   13.2450 C   0  0  0  0  0  0  0  0  0  0  0  0
   28.3820   27.1140   13.2240 C   0  0  0  0  0  0  0  0  0  0  0  0
   28.8980   25.6920   13.4330 C   0  0  0  0  0  0  0  0  0  0  0  0
   28.6570   24.5660   12.6600 C   0  0  0  0  0  0  0  0  0  0  0  0
   29.2300   23.3570   13.0570 C   0  0  0  0  0  0  0  0  0  0  0  0
   30.0400   23.2890   14.2020 C   0  0  0  0  0  0  0  0  0  0  0  0
   30.2910   24.4300   14.9710 C   0  0  0  0  0  0  0  0  0  0  0  0
   29.7170   25.6300   14.5810 C   0  0  0  0  0  0  0  0  0  0  0  0
   29.7970   26.9490   15.1710 C   0  0  0  0  0  0  0  0  0  0  0  0
   29.0240   27.8460   14.3990 C   0  0  0  0  0  0  0  0  0  0  0  0
   28.9340   29.1890   14.7290 C   0  0  0  0  0  0  0  0  0  0  0  0
   29.6210   29.6370   15.8600 C   0  0  0  0  0  0  0  0  0  0  0  0
   30.3840   28.7480   16.6360 C   0  0  0  0  0  0  0  0  0  0  0  0
   30.4760   27.3960   16.2930 C   0  0  0  0  0  0  0  0  0  0  0  0
   25.1778   26.1076   12.9842 H   0  0  0  0  0  0  0  0  0  0  0  0
   22.9300   25.6282   14.9493 H   0  0  0  0  0  0  0  0  0  0  0  0
   23.1604   25.5368   11.9748 H   0  0  0  0  0  0  0  0  0  0  0  0
   21.9346   27.2232   13.7395 H   0  0  0  0  0  0  0  0  0  0  0  0
   21.4056   26.9483   12.0256 H   0  0  0  0  0  0  0  0  0  0  0  0
   20.3086   25.4906   14.4685 H   0  0  0  0  0  0  0  0  0  0  0  0
   19.5098   26.8583   13.6162 H   0  0  0  0  0  0  0  0  0  0  0  0
   18.7864   24.4690   12.9716 H   0  0  0  0  0  0  0  0  0  0  0  0
   19.2447   25.6224   11.6338 H   0  0  0  0  0  0  0  0  0  0  0  0
   21.6931   23.5088   13.6460 H   0  0  0  0  0  0  0  0  0  0  0  0
   22.5201   23.3659   12.0221 H   0  0  0  0  0  0  0  0  0  0  0  0
   16.2396   23.4120   11.8444 H   0  0  0  0  0  0  0  0  0  0  0  0
   16.7852   24.1285   10.2902 H   0  0  0  0  0  0  0  0  0  0  0  0
   15.8059   22.6227   10.2902 H   0  0  0  0  0  0  0  0  0  0  0  0
   17.7248   20.2720   10.3067 H   0  0  0  0  0  0  0  0  0  0  0  0
   16.9050   21.4181    9.1927 H   0  0  0  0  0  0  0  0  0  0  0  0
   18.6969   21.2921    9.1927 H   0  0  0  0  0  0  0  0  0  0  0  0
   17.8238   22.5622   13.0433 H   0  0  0  0  0  0  0  0  0  0  0  0
   17.2597   20.9678   12.4380 H   0  0  0  0  0  0  0  0  0  0  0  0
   19.0128   21.3594   12.4380 H   0  0  0  0  0  0  0  0  0  0  0  0
   23.9055   23.7342   15.5360 H   0  0  0  0  0  0  0  0  0  0  0  0
   23.4197   23.1772   13.8482 H   0  0  0  0  0  0  0  0  0  0  0  0
   26.4266   26.2839   12.7941 H   0  0  0  0  0  0  0  0  0  0  0  0
   26.5114   28.0671   12.6701 H   0  0  0  0  0  0  0  0  0  0  0  0
   28.6378   27.5403   12.2428 H   0  0  0  0  0  0  0  0  0  0  0  0
   28.0306   24.6243   11.7576 H   0  0  0  0  0  0  0  0  0  0  0  0
   29.0451   22.4475   12.4666 H   0  0  0  0  0  0  0  0  0  0  0  0
   30.4826   22.3264   14.4978 H   0  0  0  0  0  0  0  0  0  0  0  0
   30.9295   24.3763   15.8651 H   0  0  0  0  0  0  0  0  0  0  0  0
   28.3383   29.8828   14.1176 H   0  0  0  0  0  0  0  0  0  0  0  0
   29.5640   30.6976   16.1463 H   0  0  0  0  0  0  0  0  0  0  0  0
   30.9154   29.1206   17.5242 H   0  0  0  0  0  0  0  0  0  0  0  0
   31.0747   26.7017   16.9009 H   0  0  0  0  0  0  0  0  0  0  0  0
  2  1  1  0
  3  2  2  0
  4  1  1  0
  5  4  1  0
  6  5  1  0
  7  6  1  0
  8  7  1  0
  9  8  1  0
 10  9  1  0
 10  5  1  0
 11  9  1  0
 12 11  2  0
 13 11  1  0
 14 13  1  0
 15 14  1  0
 16 14  1  0
 17 14  1  0
 18  4  1  0
 20 19  1  0
 20 18  1  0
 21 20  2  0
 22  2  1  0
 23 22  1  0
 24 23  1  0
 25 24  1  0
 26 25  2  0
 27 26  1  0
 28 27  2  0
 29 28  1  0
 30 29  2  0
 30 25  1  0
 31 30  1  0
 32 31  2  0
 32 24  1  0
 33 32  1  0
 34 33  2  0
 35 34  1  0
 36 31  1  0
 36 35  2  0
  1 37  1  0
  4 38  1  1
  5 39  1  6
  6 40  1  0
  6 41  1  0
  7 42  1  0
  7 43  1  0
  8 44  1  0
  8 45  1  0
 10 46  1  0
 10 47  1  0
 15 48  1  0
 15 49  1  0
 15 50  1  0
 16 51  1  0
 16 52  1  0
 16 53  1  0
 17 54  1  0
 17 55  1  0
 17 56  1  0
 18 57  1  0
 18 58  1  0
 23 59  1  0
 23 60  1  0
 24 61  1  0
 26 62  1  0
 27 63  1  0
 28 64  1  0
 29 65  1  0
 33 66  1  0
 34 67  1  0
 35 68  1  0
 36 69  1  0
M  CHG  1  19  -1
M  END
$$$$
=
     RDKit          3D

 35 37  0  0  0  0  0  0  0  0999 V2000
   18.2820   14.0100    3.9430 C   0  0  0  0  0  0  0  0  0  0  0  0
   18.3890   12.7990    3.2340 C   0  0  0  0  0  0  0  0  0  0  0  0
   17.2640   12.1250    2.8100 C   0  0  0  0  0  0  0  0  0  0  0  0
   16.0120   12.6390    3.1240 C   0  0  0  0  0  0  0  0  0  0  0  0
   15.8320   13.8600    3.8170 C   0  0  0  0  0  0  0  0  0  0  0  0
   16.9950   14.6210    4.1750 C   0  0  0  0  0  0  0  0  0  0  0  0
   16.7410   15.9130    4.7390 C   0  0  0  0  0  0  0  0  0  0  0  0
   15.4510   16.3670    5.0590 C   0  0  0  0  0  0  0  0  0  0  0  0
   14.3590   15.5660    4.7820 C   0  0  0  0  0  0  0  0  0  0  0  0
   14.5190   14.3300    4.1450 C   0  0  0  0  0  0  0  0  0  0  0  0
   13.3290   13.6440    3.8860 N   0  0  0  0  0  0  0  0  0  0  0  0
   12.1370   14.0030    4.6660 C   0  0  0  0  0  0  0  0  0  0  0  0
   10.8800   14.0220    3.7780 C   0  0  0  0  0  0  0  0  0  0  0  0
   10.6700   12.8180    3.0250 O   0  0  0  0  0  0  0  0  0  0  0  0
   11.8850   12.2190    2.5400 C   0  0  0  0  0  0  0  0  0  0  0  0
   13.1030   13.1580    2.5220 C   0  0  0  0  0  0  0  0  0  0  0  0
   19.6970   14.4010    5.8150 O   0  0  0  0  0  1  0  0  0  0  0  0
   19.5630   14.5270    4.5600 C   0  0  0  0  0  0  0  0  0  0  0  0
   20.3680   15.1020    3.7660 O   0  0  0  0  0  0  0  0  0  0  0  0
   17.7660   16.9600    4.8050 N   0  0  0  0  0  4  0  0  0  0  0  0
   18.2380   17.3480    3.7250 O   0  0  0  0  0  0  0  0  0  0  0  0
   17.9200   17.5370    5.8970 O   0  0  0  0  0  1  0  0  0  0  0  0
   19.3842   12.3847    3.0152 H   0  0  0  0  0  0  0  0  0  0  0  0
   17.3560   11.1939    2.2316 H   0  0  0  0  0  0  0  0  0  0  0  0
   15.1201   12.0713    2.8203 H   0  0  0  0  0  0  0  0  0  0  0  0
   15.3107   17.3527    5.5266 H   0  0  0  0  0  0  0  0  0  0  0  0
   13.3515   15.9043    5.0658 H   0  0  0  0  0  0  0  0  0  0  0  0
   11.9980   13.2653    5.4700 H   0  0  0  0  0  0  0  0  0  0  0  0
   12.2838   15.0090    5.0861 H   0  0  0  0  0  0  0  0  0  0  0  0
   10.0042   14.1813    4.4242 H   0  0  0  0  0  0  0  0  0  0  0  0
   11.0240   14.8302    3.0458 H   0  0  0  0  0  0  0  0  0  0  0  0
   12.1243   11.3601    3.1842 H   0  0  0  0  0  0  0  0  0  0  0  0
   11.6956   11.9365    1.4939 H   0  0  0  0  0  0  0  0  0  0  0  0
   13.9898   12.6103    2.1705 H   0  0  0  0  0  0  0  0  0  0  0  0
   12.9195   14.0042    1.8435 H   0  0  0  0  0  0  0  0  0  0  0  0
  2  1  2  0
  3  2  1  0
  4  3  2  0
  5  4  1  0
  6  5  2  0
  6  1  1  0
  7  6  1  0
  8  7  2  0
  9  8  1  0
 10  9  2  0
 10  5  1  0
 11 10  1  0
 12 11  1  0
 13 12  1  0
 14 13  1  0
 15 14  1  0
 16 15  1  0
 16 11  1  0
 18  1  1  0
 18 17  1  0
 19 18  2  0
 20  7  1  0
 21 20  2  0
 22 20  1  0
  2 23  1  0
  3 24  1  0
  4 25  1  0
  8 26  1  0
  9 27  1  0
 12 28  1  0
 12 29  1  0
 13 30  1  0
 13 31  1  0
 15 32  1  0
 15 33  1  0
 16 34  1  0
 16 35  1  0
M  CHG  3  17  -1  20   1  22  -1
M  END
$$$$
=
     RDKit          3D

 19 20  0  0  0  0  0  0  0  0999 V2000
   19.4920   15.4050    4.5040 C   0  0  0  0  0  0  0  0  0  0  0  0
   18.8900   14.5190    3.7210 N   0  0  0  0  0  0  0  0  0  0  0  0
   17.5560   14.7740    3.9100 C   0  0  0  0  0  0  0  0  0  0  0  0
   17.3950   15.7820    4.8430 C   0  0  0  0  0  0  0  0  0  0  0  0
   18.6330   16.1750    5.2510 O   0  0  0  0  0  0  0  0  0  0  0  0
   16.1690   16.2780    5.2720 C   0  0  0  0  0  0  0  0  0  0  0  0
   15.0390   15.6880    4.6910 C   0  0  0  0  0  0  0  0  0  0  0  0
   15.1580   14.6640    3.7420 C   0  0  0  0  0  0  0  0  0  0  0  0
   16.4170   14.1920    3.3400 C   0  0  0  0  0  0  0  0  0  0  0  0
   20.9400   15.5700    4.7560 C   0  0  0  0  0  0  0  0  0  0  0  0
   21.8700   16.6330    6.6560 O   0  0  0  0  0  1  0  0  0  0  0  0
   21.2200   15.6260    6.2490 C   0  0  0  0  0  0  0  0  0  0  0  0
   20.8270   14.6200    6.9110 O   0  0  0  0  0  0  0  0  0  0  0  0
   16.0914   17.0816    6.0192 H   0  0  0  0  0  0  0  0  0  0  0  0
   14.0379   16.0357    4.9858 H   0  0  0  0  0  0  0  0  0  0  0  0
   14.2499   14.2230    3.3050 H   0  0  0  0  0  0  0  0  0  0  0  0
   16.5068   13.3861    2.5967 H   0  0  0  0  0  0  0  0  0  0  0  0
   21.4825   14.7191    4.3181 H   0  0  0  0  0  0  0  0  0  0  0  0
   21.2749   16.5117    4.2967 H   0  0  0  0  0  0  0  0  0  0  0  0
  2  1  2  0
  3  2  1  0
  4  3  2  0
  5  4  1  0
  5  1  1  0
  6  4  1  0
  7  6  2  0
  8  7  1  0
  9  8  2  0
  9  3  1  0
 10  1  1  0
 12 10  1  0
 12 11  1  0
 13 12  2  0
  6 14  1  0
  7 15  1  0
  8 16  1  0
  9 17  1  0
 10 18  1  0
 10 19  1  0
M  CHG  1  11  -1
M  END
$$$$
=
     RDKit          3D

 12 12  0  0  0  0  0  0  0  0999 V2000
   21.8480   17.7120    5.6220 C   0  0  0  0  0  0  0  0  0  0  0  0
   20.6500   18.6230    5.5710 C   0  0  0  0  0  0  0  0  0  0  0  0
   21.3610   18.2440    4.3010 C   0  0  0  0  0  0  0  0  0  0  0  0
   21.8320   15.4580    4.9920 O   0  0  0  0  0  1  0  0  0  0  0  0
   21.7040   16.2680    5.9730 C   0  0  0  0  0  0  0  0  0  0  0  0
   21.4700   15.9280    7.1760 O   0  0  0  0  0  0  0  0  0  0  0  0
   23.0720   18.3190    6.1260 O   0  0  0  0  0  0  0  0  0  0  0  0
   19.6464   18.2240    5.7795 H   0  0  0  0  0  0  0  0  0  0  0  0
   20.3732   19.5717    6.0540 H   0  0  0  0  0  0  0  0  0  0  0  0
   20.8771   17.5680    3.5807 H   0  0  0  0  0  0  0  0  0  0  0  0
   21.8193   18.8011    3.4706 H   0  0  0  0  0  0  0  0  0  0  0  0
   23.0600   18.3130    7.1159 H   0  0  0  0  0  0  0  0  0  0  0  0
  2  1  1  0
  3  2  1  0
  3  1  1  0
  5  4  1  0
  5  1  1  0
  6  5  2  0
  7  1  1  0
  2  8  1  0
  2  9  1  0
  3 10  1  0
  3 11  1  0
  7 12  1  0
M  CHG  1   4  -1
M  END
$$$$
=
     RDKit          3D

 28 29  0  0  0  0  0  0  0  0999 V2000
   17.2730   15.1930    4.4110 C   0  0  1  0  0  0  0  0  0  0  0  0
   16.5230   16.3070    5.1810 C   0  0  0  0  0  0  0  0  0  0  0  0
   16.9950   17.2430    5.8090 O   0  0  0  0  0  0  0  0  0  0  0  0
   15.1610   16.0750    5.0440 N   0  0  0  0  0  0  0  0  0  0  0  0
   14.9130   14.9310    4.3090 C   0  0  0  0  0  0  0  0  0  0  0  0
   16.1160   14.3420    3.9130 C   0  0  0  0  0  0  0  0  0  0  0  0
   16.1000   13.1420    3.2110 C   0  0  0  0  0  0  0  0  0  0  0  0
   17.3540   12.4420    2.7860 C   0  0  0  0  0  0  0  0  0  0  0  0
   14.8420   12.6010    2.8760 C   0  0  0  0  0  0  0  0  0  0  0  0
   13.6340   13.2260    3.2550 C   0  0  0  0  0  0  0  0  0  0  0  0
   13.6740   14.4050    4.0050 C   0  0  0  0  0  0  0  0  0  0  0  0
   12.3210   12.5910    2.9070 C   0  0  0  0  0  0  0  0  0  0  0  0
   18.1090   15.8250    3.3030 C   0  0  0  0  0  0  0  0  0  0  0  0
   20.0260   17.1600    3.6920 O   0  0  0  0  0  1  0  0  0  0  0  0
   19.5760   15.9820    3.6740 C   0  0  0  0  0  0  0  0  0  0  0  0
   20.1760   14.8970    3.9170 O   0  0  0  0  0  0  0  0  0  0  0  0
   17.9960   14.5978    4.9881 H   0  0  0  0  0  0  0  0  0  0  0  0
   14.4274   16.6796    5.4404 H   0  0  0  0  0  0  0  0  0  0  0  0
   17.9180   12.1272    3.6764 H   0  0  0  0  0  0  0  0  0  0  0  0
   17.0948   11.5581    2.1847 H   0  0  0  0  0  0  0  0  0  0  0  0
   17.9703   13.1266    2.1847 H   0  0  0  0  0  0  0  0  0  0  0  0
   14.8003   11.6636    2.3020 H   0  0  0  0  0  0  0  0  0  0  0  0
   12.7493   14.8967    4.3414 H   0  0  0  0  0  0  0  0  0  0  0  0
   11.7832   12.3309    3.8307 H   0  0  0  0  0  0  0  0  0  0  0  0
   11.7172   13.2967    2.3175 H   0  0  0  0  0  0  0  0  0  0  0  0
   12.4993   11.6796    2.3175 H   0  0  0  0  0  0  0  0  0  0  0  0
   18.0409   15.1893    2.4079 H   0  0  0  0  0  0  0  0  0  0  0  0
   17.7072   16.8335    3.1253 H   0  0  0  0  0  0  0  0  0  0  0  0
  2  1  1  0
  3  2  2  0
  4  2  1  0
  5  4  1  0
  6  5  2  0
  6  1  1  0
  7  6  1  0
  8  7  1  0
  9  7  2  0
 10  9  1  0
 11 10  2  0
 11  5  1  0
 12 10  1  0
 13  1  1  0
 15 13  1  0
 15 14  1  0
 16 15  2  0
  1 17  1  1
  4 18  1  0
  8 19  1  0
  8 20  1  0
  8 21  1  0
  9 22  1  0
 11 23  1  0
 12 24  1  0
 12 25  1  0
 12 26  1  0
 13 27  1  0
 13 28  1  0
M  CHG  1  14  -1
M  END
$$$$
=
     RDKit          3D

 46 46  0  0  0  0  0  0  0  0999 V2000
   15.5600   15.1710    4.0720 C   0  0  1  0  0  0  0  0  0  0  0  0
   15.8570   15.8430    5.4240 C   0  0  0  0  0  0  0  0  0  0  0  0
   15.4860   15.1800    6.4350 O   0  0  0  0  0  0  0  0  0  0  0  0
   16.4020   16.9800    5.3760 O   0  0  0  0  0  1  0  0  0  0  0  0
   16.8430   15.2740    3.2280 C   0  0  0  0  0  0  0  0  0  0  0  0
   18.0120   14.4260    3.7370 C   0  0  0  0  0  0  0  0  0  0  0  0
   19.3150   15.2900    6.1640 O   0  0  0  0  0  0  0  0  0  0  0  0
   19.7850   15.5300    5.0640 C   0  0  0  0  0  0  0  0  0  0  0  0
   19.2090   15.2320    3.8690 N   0  0  0  0  0  0  0  0  0  0  0  0
   20.9740   16.1360    4.8280 O   0  0  0  0  0  0  0  0  0  0  0  0
   21.0850   17.5800    4.8670 C   0  0  0  0  0  0  0  0  0  0  0  0
   19.8210   18.2230    5.4470 C   0  0  0  0  0  0  0  0  0  0  0  0
   21.4410   18.1520    3.4900 C   0  0  0  0  0  0  0  0  0  0  0  0
   22.2550   17.8530    5.8260 C   0  0  0  0  0  0  0  0  0  0  0  0
   15.0270   13.7460    4.2500 C   0  0  0  0  0  0  0  0  0  0  0  0
   13.5630   13.6050    3.8880 C   0  0  0  0  0  0  0  0  0  0  0  0
   13.1570   12.6510    2.9480 C   0  0  0  0  0  0  0  0  0  0  0  0
   11.8080   12.5060    2.6180 C   0  0  0  0  0  0  0  0  0  0  0  0
   10.8370   13.3040    3.2360 C   0  0  0  0  0  0  0  0  0  0  0  0
   11.2430   14.2630    4.1700 C   0  0  0  0  0  0  0  0  0  0  0  0
   12.5940   14.4090    4.4970 C   0  0  0  0  0  0  0  0  0  0  0  0
    9.3910   13.1700    2.8650 C   0  0  0  0  0  0  0  0  0  0  0  0
   14.7464   15.6825    3.5367 H   0  0  0  0  0  0  0  0  0  0  0  0
   16.6062   14.9516    2.2033 H   0  0  0  0  0  0  0  0  0  0  0  0
   17.1705   16.3225    3.2863 H   0  0  0  0  0  0  0  0  0  0  0  0
   17.7512   14.0032    4.7184 H   0  0  0  0  0  0  0  0  0  0  0  0
   18.2059   13.6200    3.0140 H   0  0  0  0  0  0  0  0  0  0  0  0
   19.6468   15.5987    3.0118 H   0  0  0  0  0  0  0  0  0  0  0  0
   19.8684   18.1989    6.5457 H   0  0  0  0  0  0  0  0  0  0  0  0
   19.7508   19.2664    5.1058 H   0  0  0  0  0  0  0  0  0  0  0  0
   18.9363   17.6654    5.1058 H   0  0  0  0  0  0  0  0  0  0  0  0
   22.0184   19.0797    3.6164 H   0  0  0  0  0  0  0  0  0  0  0  0
   22.0426   17.4188    2.9327 H   0  0  0  0  0  0  0  0  0  0  0  0
   20.5175   18.3679    2.9327 H   0  0  0  0  0  0  0  0  0  0  0  0
   21.9040   17.7711    6.8653 H   0  0  0  0  0  0  0  0  0  0  0  0
   23.0532   17.1170    5.6495 H   0  0  0  0  0  0  0  0  0  0  0  0
   22.6450   18.8663    5.6495 H   0  0  0  0  0  0  0  0  0  0  0  0
   15.6121   13.0715    3.6076 H   0  0  0  0  0  0  0  0  0  0  0  0
   15.1253   13.4918    5.3157 H   0  0  0  0  0  0  0  0  0  0  0  0
   13.9080   12.0091    2.4644 H   0  0  0  0  0  0  0  0  0  0  0  0
   11.5060   11.7603    1.8679 H   0  0  0  0  0  0  0  0  0  0  0  0
   10.4927   14.9076    4.6511 H   0  0  0  0  0  0  0  0  0  0  0  0
   12.8976   15.1621    5.2391 H   0  0  0  0  0  0  0  0  0  0  0  0
    8.7817   13.1135    3.7791 H   0  0  0  0  0  0  0  0  0  0  0  0
    9.0822   14.0434    2.2718 H   0  0  0  0  0  0  0  0  0  0  0  0
    9.2479   12.2547    2.2718 H   0  0  0  0  0  0  0  0  0  0  0  0
  2  1  1  0
  3  2  2  0
  4  2  1  0
  5  1  1  0
  6  5  1  0
  8  7  2  0
  9  8  1  0
  9  6  1  0
 10  8  1  0
 11 10  1  0
 12 11  1  0
 13 11  1  0
 14 11  1  0
 15  1  1  0
 16 15  1  0
 17 16  2  0
 18 17  1  0
 19 18  2  0
 20 19  1  0
 21 20  2  0
 21 16  1  0
 22 19  1  0
  1 23  1  6
  5 24  1  0
  5 25  1  0
  6 26  1  0
  6 27  1  0
  9 28  1  0
 12 29  1  0
 12 30  1  0
 12 31  1  0
 13 32  1  0
 13 33  1  0
 13 34  1  0
 14 35  1  0
 14 36  1  0
 14 37  1  0
 15 38  1  0
 15 39  1  0
 17 40  1  0
 18 41  1  0
 20 42  1  0
 21 43  1  0
 22 44  1  0
 22 45  1  0
 22 46  1  0
M  CHG  1   4  -1
M  END
$$$$
=
     RDKit          3D

 23 23  0  0  0  0  0  0  0  0999 V2000
   18.8850   17.0390    4.6570 C   0  0  0  0  0  0  0  0  0  0  0  0
   18.0400   17.4050    5.7100 C   0  0  0  0  0  0  0  0  0  0  0  0
   16.8070   16.7730    5.8840 C   0  0  0  0  0  0  0  0  0  0  0  0
   16.4000   15.7570    5.0120 C   0  0  0  0  0  0  0  0  0  0  0  0
   17.2360   15.4030    3.9460 C   0  0  0  0  0  0  0  0  0  0  0  0
   18.4690   16.0380    3.7720 C   0  0  0  0  0  0  0  0  0  0  0  0
   15.0590   15.1100    5.1750 C   0  0  0  0  0  0  0  0  0  0  0  0
   20.2140   17.7370    4.4640 C   0  0  0  0  0  0  0  0  0  0  0  0
   22.9200   18.3150    5.1520 Br  0  0  0  0  0  0  0  0  0  0  0  0
   21.1650   17.5260    5.6380 C   0  0  2  0  0  0  0  0  0  0  0  0
   21.4550   16.0640    6.0140 C   0  0  0  0  0  0  0  0  0  0  0  0
   21.2370   15.7340    7.2160 O   0  0  0  0  0  0  0  0  0  0  0  0
   21.9000   15.3470    5.0690 O   0  0  0  0  0  1  0  0  0  0  0  0
   18.3495   18.1976    6.4071 H   0  0  0  0  0  0  0  0  0  0  0  0
   16.1505   17.0761    6.7130 H   0  0  0  0  0  0  0  0  0  0  0  0
   16.9204   14.6200    3.2408 H   0  0  0  0  0  0  0  0  0  0  0  0
   19.1178   15.7484    2.9323 H   0  0  0  0  0  0  0  0  0  0  0  0
   14.8324   15.0007    6.2458 H   0  0  0  0  0  0  0  0  0  0  0  0
   14.2896   15.7360    4.6994 H   0  0  0  0  0  0  0  0  0  0  0  0
   15.0702   14.1182    4.6994 H   0  0  0  0  0  0  0  0  0  0  0  0
   20.6882   17.3453    3.5520 H   0  0  0  0  0  0  0  0  0  0  0  0
   20.0148   18.8161    4.3872 H   0  0  0  0  0  0  0  0  0  0  0  0
   20.6622   17.9904    6.4991 H   0  0  0  0  0  0  0  0  0  0  0  0
  2  1  2  0
  3  2  1  0
  4  3  2  0
  5  4  1  0
  6  5  2  0
  6  1  1  0
  7  4  1  0
  8  1  1  0
 10  8  1  0
 10  9  1  0
 11 10  1  0
 12 11  2  0
 13 11  1  0
  2 14  1  0
  3 15  1  0
  5 16  1  0
  6 17  1  0
  7 18  1  0
  7 19  1  0
  7 20  1  0
  8 21  1  0
  8 22  1  0
 10 23  1  1
M  CHG  1  13  -1
M  END
$$$$
=
     RDKit          3D

 17 18  0  0  0  0  0  0  0  0999 V2000
   12.7600   13.7210    3.6830 C   0  0  0  0  0  0  0  0  0  0  0  0
   13.4900   12.7920    2.8920 C   0  0  0  0  0  0  0  0  0  0  0  0
   14.9060   12.8440    2.9500 C   0  0  0  0  0  0  0  0  0  0  0  0
   15.7560   12.0540    2.2750 N   0  0  0  0  0  0  0  0  0  0  0  0
   17.2850   12.5350    2.6940 S   0  0  0  0  0  0  0  0  0  0  0  0
   16.9470   13.7720    3.7490 N   0  0  0  0  0  0  0  0  0  0  0  0
   15.6060   13.8550    3.8260 C   0  0  0  0  0  0  0  0  0  0  0  0
   14.8170   14.7420    4.5870 C   0  0  0  0  0  0  0  0  0  0  0  0
   13.4200   14.6760    4.5080 C   0  0  0  0  0  0  0  0  0  0  0  0
   10.7020   12.7520    2.9910 O   0  0  0  0  0  1  0  0  0  0  0  0
   11.2420   13.6930    3.6480 C   0  0  0  0  0  0  0  0  0  0  0  0
   10.6450   14.6150    4.2810 O   0  0  0  0  0  0  0  0  0  0  0  0
   15.4740   15.6970    5.4220 N   0  0  0  0  0  4  0  0  0  0  0  0
   15.7280   15.3490    6.5840 O   0  0  0  0  0  0  0  0  0  0  0  0
   15.7610   16.7920    4.9190 O   0  0  0  0  0  1  0  0  0  0  0  0
   12.9737   12.0576    2.2564 H   0  0  0  0  0  0  0  0  0  0  0  0
   12.8166   15.3807    5.0990 H   0  0  0  0  0  0  0  0  0  0  0  0
  2  1  2  0
  3  2  1  0
  4  3  2  0
  5  4  1  0
  6  5  1  0
  7  3  1  0
  7  6  2  0
  8  7  1  0
  9  8  2  0
  9  1  1  0
 11 10  1  0
 11  1  1  0
 12 11  2  0
 13  8  1  0
 14 13  2  0
 15 13  1  0
  2 16  1  0
  9 17  1  0
M  CHG  3  10  -1  13   1  15  -1
M  END
$$$$
=
     RDKit          3D

 24 23  0  0  0  0  0  0  0  0999 V2000
   18.7250   16.1040    4.8850 C   0  0  1  0  0  0  0  0  0  0  0  0
   19.3650   16.8900    3.7200 C   0  0  0  0  0  0  0  0  0  0  0  0
   19.6370   16.2360    2.6700 O   0  0  0  0  0  0  0  0  0  0  0  0
   19.5210   18.1330    3.9240 O   0  0  0  0  0  1  0  0  0  0  0  0
   17.3610   15.5230    4.4700 C   0  0  0  0  0  0  0  0  0  0  0  0
   14.8720   15.3750    4.7900 C   0  0  0  0  0  0  0  0  0  0  0  0
   16.1710   15.9600    5.3510 C   0  0  0  0  0  0  0  0  0  0  0  0
   16.3380   15.5360    6.8110 C   0  0  0  0  0  0  0  0  0  0  0  0
   19.7000   14.9880    5.3080 C   0  0  0  0  0  0  0  0  0  0  0  0
   21.0400   15.3760    5.9470 C   0  0  0  0  0  0  0  0  0  0  0  0
   21.0170   15.4620    7.2140 O   0  0  0  0  0  0  0  0  0  0  0  0
   22.0250   15.5650    5.1780 O   0  0  0  0  0  1  0  0  0  0  0  0
   18.5421   16.7767    5.7359 H   0  0  0  0  0  0  0  0  0  0  0  0
   17.1552   15.8396    3.4369 H   0  0  0  0  0  0  0  0  0  0  0  0
   17.4438   14.4320    4.5839 H   0  0  0  0  0  0  0  0  0  0  0  0
   14.2145   15.0789    5.6206 H   0  0  0  0  0  0  0  0  0  0  0  0
   14.3654   16.1319    4.1732 H   0  0  0  0  0  0  0  0  0  0  0  0
   15.1030   14.4940    4.1732 H   0  0  0  0  0  0  0  0  0  0  0  0
   16.1341   17.0592    5.3306 H   0  0  0  0  0  0  0  0  0  0  0  0
   16.0152   16.3555    7.4700 H   0  0  0  0  0  0  0  0  0  0  0  0
   15.7238   14.6447    7.0065 H   0  0  0  0  0  0  0  0  0  0  0  0
   17.3951   15.3029    7.0065 H   0  0  0  0  0  0  0  0  0  0  0  0
   19.1689   14.3530    6.0324 H   0  0  0  0  0  0  0  0  0  0  0  0
   19.9874   14.5136    4.3581 H   0  0  0  0  0  0  0  0  0  0  0  0
  2  1  1  0
  3  2  2  0
  4  2  1  0
  5  1  1  0
  7  6  1  0
  7  5  1  0
  8  7  1  0
  9  1  1  0
 10  9  1  0
 11 10  2  0
 12 10  1  0
  1 13  1  1
  5 14  1  0
  5 15  1  0
  6 16  1  0
  6 17  1  0
  6 18  1  0
  7 19  1  0
  8 20  1  0
  8 21  1  0
  8 22  1  0
  9 23  1  0
  9 24  1  0
M  CHG  2   4  -1  12  -1
M  END
$$$$
=
     RDKit          3D

 24 25  0  0  0  0  0  0  0  0999 V2000
   15.8870   13.9920    3.1710 C   0  0  2  0  0  0  0  0  0  0  0  0
   16.0800   15.2210    4.0610 C   0  0  0  0  0  0  0  0  0  0  0  0
   14.6550   15.6660    4.3660 C   0  0  0  0  0  0  0  0  0  0  0  0
   13.9140   14.3550    4.6020 C   0  0  2  0  0  0  0  0  0  0  0  0
   14.6850   13.2820    3.8060 C   0  0  1  0  0  0  0  0  0  0  0  0
   13.6750   12.6950    2.8200 C   0  0  0  0  0  0  0  0  0  0  0  0
   12.3340   12.9180    3.5040 C   0  0  0  0  0  0  0  0  0  0  0  0
   12.4740   14.3140    4.0960 C   0  0  0  0  0  0  0  0  0  0  0  0
   16.9260   11.9640    2.5230 O   0  0  0  0  0  1  0  0  0  0  0  0
   17.1310   13.1010    3.0330 C   0  0  0  0  0  0  0  0  0  0  0  0
   18.2190   13.6170    3.4160 O   0  0  0  0  0  0  0  0  0  0  0  0
   15.7107   14.2694    2.1212 H   0  0  0  0  0  0  0  0  0  0  0  0
   16.6159   14.9574    4.9848 H   0  0  0  0  0  0  0  0  0  0  0  0
   16.6812   16.0074    3.5813 H   0  0  0  0  0  0  0  0  0  0  0  0
   14.6253   16.3012    5.2636 H   0  0  0  0  0  0  0  0  0  0  0  0
   14.2127   16.2681    3.5586 H   0  0  0  0  0  0  0  0  0  0  0  0
   13.8675   14.2055    5.6908 H   0  0  0  0  0  0  0  0  0  0  0  0
   15.0920   12.4452    4.3926 H   0  0  0  0  0  0  0  0  0  0  0  0
   13.7161   13.2222    1.8555 H   0  0  0  0  0  0  0  0  0  0  0  0
   13.8670   11.6362    2.5918 H   0  0  0  0  0  0  0  0  0  0  0  0
   11.5091   12.8785    2.7774 H   0  0  0  0  0  0  0  0  0  0  0  0
   12.1009   12.1511    4.2573 H   0  0  0  0  0  0  0  0  0  0  0  0
   12.3069   15.0835    3.3279 H   0  0  0  0  0  0  0  0  0  0  0  0
   11.7393   14.5140    4.8899 H   0  0  0  0  0  0  0  0  0  0  0  0
  2  1  1  0
  3  2  1  0
  4  3  1  0
  5  4  1  0
  5  1  1  0
  6  5  1  0
  7  6  1  0
  8  7  1  0
  8  4  1  0
 10  1  1  0
 10  9  1  0
 11 10  2  0
  1 12  1  6
  2 13  1  0
  2 14  1  0
  3 15  1  0
  3 16  1  0
  4 17  1  1
  5 18  1  1
  6 19  1  0
  6 20  1  0
  7 21  1  0
  7 22  1  0
  8 23  1  0
  8 24  1  0
M  CHG  1   9  -1
M  END
$$$$
=
     RDKit          3D

 27 28  0  0  0  0  0  0  0  0999 V2000
   20.7910   15.8660    5.0630 C   0  0  1  0  0  0  0  0  0  0  0  0
   19.8220   14.7350    5.4770 C   0  0  0  0  0  0  0  0  0  0  0  0
   18.3810   15.1030    4.9800 N   0  0  2  0  0  4  0  0  0  0  0  0
   18.4100   15.2980    3.4500 C   0  0  0  0  0  0  0  0  0  0  0  0
   19.3410   16.4940    3.0800 C   0  0  0  0  0  0  0  0  0  0  0  0
   19.9620   17.0250    4.3440 N   0  0  1  0  0  4  0  0  0  0  0  0
   18.9010   17.5660    5.3130 C   0  0  0  0  0  0  0  0  0  0  0  0
   17.9600   16.3960    5.7400 C   0  0  1  0  0  0  0  0  0  0  0  0
   16.4880   16.6850    5.4840 C   0  0  0  0  0  0  0  0  0  0  0  0
   21.3060   15.7020    7.3110 O   0  0  0  0  0  1  0  0  0  0  0  0
   21.6040   16.3570    6.2720 C   0  0  0  0  0  0  0  0  0  0  0  0
   22.4760   17.2170    6.0250 O   0  0  0  0  0  0  0  0  0  0  0  0
   21.5302   15.4903    4.3402 H   0  0  0  0  0  0  0  0  0  0  0  0
   20.1412   13.7874    5.0186 H   0  0  0  0  0  0  0  0  0  0  0  0
   19.8241   14.6204    6.5710 H   0  0  0  0  0  0  0  0  0  0  0  0
   17.6940   14.3601    5.1725 H   0  0  0  0  0  0  0  0  0  0  0  0
   18.7881   14.3815    2.9734 H   0  0  0  0  0  0  0  0  0  0  0  0
   17.3911   15.5113    3.0947 H   0  0  0  0  0  0  0  0  0  0  0  0
   20.1301   16.1516    2.3944 H   0  0  0  0  0  0  0  0  0  0  0  0
   18.7590   17.2853    2.5849 H   0  0  0  0  0  0  0  0  0  0  0  0
   20.5868   17.8020    4.0855 H   0  0  0  0  0  0  0  0  0  0  0  0
   19.3936   17.9865    6.2021 H   0  0  0  0  0  0  0  0  0  0  0  0
   18.3138   18.3543    4.8193 H   0  0  0  0  0  0  0  0  0  0  0  0
   18.0702   16.2681    6.8270 H   0  0  0  0  0  0  0  0  0  0  0  0
   15.9621   16.7882    6.4446 H   0  0  0  0  0  0  0  0  0  0  0  0
   16.3920   17.6191    4.9112 H   0  0  0  0  0  0  0  0  0  0  0  0
   16.0459   15.8565    4.9112 H   0  0  0  0  0  0  0  0  0  0  0  0
  2  1  1  0
  3  2  1  0
  4  3  1  0
  5  4  1  0
  6  1  1  0
  6  5  1  0
  7  6  1  0
  8  3  1  0
  8  7  1  0
  9  8  1  0
 11  1  1  0
 11 10  1  0
 12 11  2  0
  1 13  1  6
  2 14  1  0
  2 15  1  0
  3 16  1  6
  4 17  1  0
  4 18  1  0
  5 19  1  0
  5 20  1  0
  6 21  1  6
  7 22  1  0
  7 23  1  0
  8 24  1  1
  9 25  1  0
  9 26  1  0
  9 27  1  0
M  CHG  3   3   1   6   1  10  -1
M  END
$$$$
=
     RDKit          3D

 21 21  0  0  0  0  0  0  0  0999 V2000
   14.2190   13.9590    3.9260 C   0  0  0  0  0  0  0  0  0  0  0  0
   14.6190   15.1050    4.6120 C   0  0  0  0  0  0  0  0  0  0  0  0
   15.9480   15.5180    4.5630 C   0  0  0  0  0  0  0  0  0  0  0  0
   16.8470   14.7660    3.8210 C   0  0  0  0  0  0  0  0  0  0  0  0
   16.4590   13.6580    3.1580 N   0  0  0  0  0  0  0  0  0  0  0  0
   15.1360   13.2530    3.2110 N   0  0  0  0  0  0  0  0  0  0  0  0
   12.2020   13.1100    2.9140 O   0  0  0  0  0  1  0  0  0  0  0  0
   12.7570   13.5140    3.9860 C   0  0  0  0  0  0  0  0  0  0  0  0
   12.1870   13.5790    5.1270 O   0  0  0  0  0  0  0  0  0  0  0  0
   18.2920   15.1170    3.7010 C   0  0  0  0  0  0  0  0  0  0  0  0
   19.1970   14.3230    3.4960 O   0  0  0  0  0  0  0  0  0  0  0  0
   18.4600   16.4630    3.8570 O   0  0  0  0  0  0  0  0  0  0  0  0
   19.7180   16.9880    3.4100 C   0  0  0  0  0  0  0  0  0  0  0  0
   19.5900   17.5240    1.9970 C   0  0  0  0  0  0  0  0  0  0  0  0
   13.8846   15.6831    5.1921 H   0  0  0  0  0  0  0  0  0  0  0  0
   16.2773   16.4196    5.1002 H   0  0  0  0  0  0  0  0  0  0  0  0
   20.0307   17.8021    4.0804 H   0  0  0  0  0  0  0  0  0  0  0  0
   20.4673   16.1828    3.4217 H   0  0  0  0  0  0  0  0  0  0  0  0
   19.3346   18.5934    2.0322 H   0  0  0  0  0  0  0  0  0  0  0  0
   20.5448   17.3923    1.4670 H   0  0  0  0  0  0  0  0  0  0  0  0
   18.7977   16.9751    1.4670 H   0  0  0  0  0  0  0  0  0  0  0  0
  2  1  2  0
  3  2  1  0
  4  3  2  0
  5  4  1  0
  6  1  1  0
  6  5  2  0
  8  7  1  0
  8  1  1  0
  9  8  2  0
 10  4  1  0
 11 10  2  0
 12 10  1  0
 13 12  1  0
 14 13  1  0
  2 15  1  0
  3 16  1  0
 13 17  1  0
 13 18  1  0
 14 19  1  0
 14 20  1  0
 14 21  1  0
M  CHG  1   7  -1
M  END
$$$$
=
     RDKit          3D

 29 30  0  0  0  0  0  0  0  0999 V2000
   18.6190   14.8890    3.6820 C   0  0  0  0  0  0  0  0  0  0  0  0
   19.1660   13.8810    3.2290 O   0  0  0  0  0  0  0  0  0  0  0  0
   17.2620   15.0650    3.8040 N   0  0  0  0  0  0  0  0  0  0  0  0
   20.6870   15.7840    4.9940 C   0  0  2  0  0  0  0  0  0  0  0  0
   21.5310   17.0630    5.1640 C   0  0  0  0  0  0  0  0  0  0  0  0
   20.7140   18.3090    5.3950 C   0  0  0  0  0  0  0  0  0  0  0  0
   19.3870   18.3690    5.2090 C   0  0  0  0  0  0  0  0  0  0  0  0
   18.5810   17.2070    4.6990 C   0  0  0  0  0  0  0  0  0  0  0  0
   19.4630   16.0960    4.1090 C   0  0  2  0  0  0  0  0  0  0  0  0
   21.2870   15.5680    7.2850 O   0  0  0  0  0  1  0  0  0  0  0  0
   20.4780   15.1850    6.3970 C   0  0  0  0  0  0  0  0  0  0  0  0
   19.5620   14.3130    6.4950 O   0  0  0  0  0  0  0  0  0  0  0  0
   16.3160   14.1240    3.4760 C   0  0  0  0  0  0  0  0  0  0  0  0
   14.9640   14.0180    3.6880 C   0  0  0  0  0  0  0  0  0  0  0  0
   14.6040   12.7940    3.0960 C   0  0  0  0  0  0  0  0  0  0  0  0
   15.6430   12.1600    2.5450 N   0  0  0  0  0  0  0  0  0  0  0  0
   16.6730   13.0040    2.7750 N   0  0  0  0  0  0  0  0  0  0  0  0
   16.9291   15.9691    4.1682 H   0  0  0  0  0  0  0  0  0  0  0  0
   21.1691   14.9726    4.4290 H   0  0  0  0  0  0  0  0  0  0  0  0
   22.2009   16.9237    6.0253 H   0  0  0  0  0  0  0  0  0  0  0  0
   22.0789   17.2111    4.2217 H   0  0  0  0  0  0  0  0  0  0  0  0
   21.2339   19.2171    5.7341 H   0  0  0  0  0  0  0  0  0  0  0  0
   18.8656   19.3097    5.4398 H   0  0  0  0  0  0  0  0  0  0  0  0
   17.9971   16.7893    5.5324 H   0  0  0  0  0  0  0  0  0  0  0  0
   17.9280   17.5788    3.8956 H   0  0  0  0  0  0  0  0  0  0  0  0
   19.9173   16.4615    3.1762 H   0  0  0  0  0  0  0  0  0  0  0  0
   14.3073   14.7323    4.2062 H   0  0  0  0  0  0  0  0  0  0  0  0
   13.5767   12.4007    3.0876 H   0  0  0  0  0  0  0  0  0  0  0  0
   17.6345   12.8219    2.4536 H   0  0  0  0  0  0  0  0  0  0  0  0
  2  1  2  0
  3  1  1  0
  5  4  1  0
  6  5  1  0
  7  6  2  0
  8  7  1  0
  9  4  1  0
  9  1  1  0
  9  8  1  0
 11  4  1  0
 11 10  1  0
 12 11  2  0
 13  3  1  0
 14 13  2  0
 15 14  1  0
 16 15  2  0
 17 16  1  0
 17 13  1  0
  3 18  1  0
  4 19  1  6
  5 20  1  0
  5 21  1  0
  6 22  1  0
  7 23  1  0
  8 24  1  0
  8 25  1  0
  9 26  1  6
 14 27  1  0
 15 28  1  0
 17 29  1  0
M  CHG  1  10  -1
M  END
$$$$
=
     RDKit          3D

 36 37  0  0  0  0  0  0  0  0999 V2000
   17.3290   15.1460    4.7020 N   0  0  0  0  0  0  0  0  0  0  0  0
   15.7950   15.5770    5.2590 S   0  0  0  0  0  6  0  0  0  0  0  0
   15.5030   16.9350    4.8460 O   0  0  0  0  0  0  0  0  0  0  0  0
   15.7450   15.2230    6.6650 O   0  0  0  0  0  0  0  0  0  0  0  0
   12.9070   12.8330    3.0250 C   0  0  0  0  0  0  0  0  0  0  0  0
   12.4170   13.8760    3.8150 C   0  0  0  0  0  0  0  0  0  0  0  0
   13.2940   14.7060    4.5160 C   0  0  0  0  0  0  0  0  0  0  0  0
   14.6710   14.4930    4.4140 C   0  0  0  0  0  0  0  0  0  0  0  0
   15.1700   13.4830    3.5890 C   0  0  0  0  0  0  0  0  0  0  0  0
   14.2850   12.6470    2.9030 C   0  0  0  0  0  0  0  0  0  0  0  0
   10.6050   12.4760    2.6480 C   0  0  0  0  0  0  0  0  0  0  0  0
   11.9490   12.0750    2.4020 O   0  0  0  0  0  0  0  0  0  0  0  0
   18.3660   16.2700    4.5990 C   0  0  2  0  0  0  0  0  0  0  0  0
   19.2130   15.9620    3.3280 C   0  0  0  0  0  0  0  0  0  0  0  0
   19.6110   14.7550    3.2710 O   0  0  0  0  0  0  0  0  0  0  0  0
   19.3460   16.8960    2.4920 O   0  0  0  0  0  1  0  0  0  0  0  0
   19.3000   16.1690    5.8090 C   0  0  0  0  0  0  0  0  0  0  0  0
   20.4620   17.1080    5.7640 C   0  0  0  0  0  0  0  0  0  0  0  0
   20.4680   18.4730    5.5660 C   0  0  0  0  0  0  0  0  0  0  0  0
   21.7770   18.8470    5.6340 N   0  0  0  0  0  0  0  0  0  0  0  0
   22.5180   17.7180    5.8300 C   0  0  0  0  0  0  0  0  0  0  0  0
   21.7580   16.6500    5.9010 N   0  0  0  0  0  0  0  0  0  0  0  0
   17.7047   14.4328    5.3432 H   0  0  0  0  0  0  0  0  0  0  0  0
   11.3323   14.0445    3.8852 H   0  0  0  0  0  0  0  0  0  0  0  0
   12.9040   15.5210    5.1435 H   0  0  0  0  0  0  0  0  0  0  0  0
   16.2559   13.3459    3.4795 H   0  0  0  0  0  0  0  0  0  0  0  0
   14.6753   11.8402    2.2652 H   0  0  0  0  0  0  0  0  0  0  0  0
   10.4306   12.5280    3.7328 H   0  0  0  0  0  0  0  0  0  0  0  0
   10.4299   13.4655    2.2006 H   0  0  0  0  0  0  0  0  0  0  0  0
    9.9163   11.7442    2.2006 H   0  0  0  0  0  0  0  0  0  0  0  0
   17.8918   17.2617    4.5579 H   0  0  0  0  0  0  0  0  0  0  0  0
   18.7156   16.3860    6.7153 H   0  0  0  0  0  0  0  0  0  0  0  0
   19.7154   15.1504    5.8045 H   0  0  0  0  0  0  0  0  0  0  0  0
   19.5986   19.1235    5.3901 H   0  0  0  0  0  0  0  0  0  0  0  0
   22.1407   19.8072    5.5523 H   0  0  0  0  0  0  0  0  0  0  0  0
   23.6144   17.7045    5.9175 H   0  0  0  0  0  0  0  0  0  0  0  0
  2  1  1  0
  3  2  2  0
  4  2  2  0
  6  5  2  0
  7  6  1  0
  8  7  2  0
  8  2  1  0
  9  8  1  0
 10  9  2  0
 10  5  1  0
 12 11  1  0
 12  5  1  0
 13  1  1  0
 14 13  1  0
 15 14  2  0
 16 14  1  0
 17 13  1  0
 18 17  1  0
 19 18  2  0
 20 19  1  0
 21 20  1  0
 22 18  1  0
 22 21  2  0
  1 23  1  0
  6 24  1  0
  7 25  1  0
  9 26  1  0
 10 27  1  0
 11 28  1  0
 11 29  1  0
 11 30  1  0
 13 31  1  6
 17 32  1  0
 17 33  1  0
 19 34  1  0
 20 35  1  0
 21 36  1  0
M  CHG  1  16  -1
M  END
$$$$
=
     RDKit          3D

125126  0  0  0  0  0  0  0  0999 V2000
   16.0780   25.4240    9.9840 C   0  0  0  0  0  0  0  0  0  0  0  0
   16.0780   24.0200   10.6020 C   0  0  0  0  0  0  0  0  0  0  0  0
   16.8640   23.0600    9.8930 O   0  0  0  0  0  0  0  0  0  0  0  0
   18.1480   22.7480   10.4340 C   0  0  0  0  0  0  0  0  0  0  0  0
   18.2090   22.6380   11.9650 C   0  0  0  0  0  0  0  0  0  0  0  0
   19.2590   21.7870   12.4280 O   0  0  0  0  0  0  0  0  0  0  0  0
   19.1540   21.4150   13.8010 C   0  0  0  0  0  0  0  0  0  0  0  0
   20.5360   21.2490   14.4310 C   0  0  0  0  0  0  0  0  0  0  0  0
   20.6450   22.1040   15.5670 O   0  0  0  0  0  0  0  0  0  0  0  0
   19.9020   21.6330   16.6950 C   0  0  0  0  0  0  0  0  0  0  0  0
   19.9080   22.6610   17.8300 C   0  0  0  0  0  0  0  0  0  0  0  0
   18.5960   24.6170   16.2720 O   0  0  0  0  0  0  0  0  0  0  0  0
   18.0400   24.1790   17.2720 C   0  0  0  0  0  0  0  0  0  0  0  0
   18.6000   23.2290   18.0960 N   0  0  0  0  0  0  0  0  0  0  0  0
   16.6560   24.6120   17.7230 C   0  0  0  0  0  0  0  0  0  0  0  0
   15.5740   23.6250   17.2820 C   0  0  0  0  0  0  0  0  0  0  0  0
   15.1970   23.7700   15.8050 C   0  0  0  0  0  0  0  0  0  0  0  0
   15.3520   22.4900   14.9720 C   0  0  0  0  0  0  0  0  0  0  0  0
   14.0690   22.0570   14.2430 C   0  0  2  0  0  0  0  0  0  0  0  0
   12.8450   23.4120   14.3080 S   0  0  0  0  0  0  0  0  0  0  0  0
   11.4000   22.3490   14.5570 C   0  0  0  0  0  0  0  0  0  0  0  0
   11.8770   20.9110   14.5000 C   0  0  2  0  0  0  0  0  0  0  0  0
   13.3680   20.8270   14.8460 C   0  0  1  0  0  0  0  0  0  0  0  0
   13.7410   19.6100   14.1540 N   0  0  0  0  0  0  0  0  0  0  0  0
   12.8620   19.3510   13.1150 C   0  0  0  0  0  0  0  0  0  0  0  0
   12.9720   18.4740   12.2810 O   0  0  0  0  0  0  0  0  0  0  0  0
   11.8190   20.2640   13.2080 N   0  0  0  0  0  0  0  0  0  0  0  0
   17.3420   26.0880   10.0730 O   0  0  0  0  0  0  0  0  0  0  0  0
   17.7160   26.4350   11.4060 C   0  0  0  0  0  0  0  0  0  0  0  0
   19.2330   26.6210   11.4640 C   0  0  0  0  0  0  0  0  0  0  0  0
   19.7390   26.5060   12.7930 O   0  0  0  0  0  0  0  0  0  0  0  0
   20.5010   27.6430   13.1950 C   0  0  0  0  0  0  0  0  0  0  0  0
   21.4580   27.2480   14.3180 C   0  0  0  0  0  0  0  0  0  0  0  0
   21.2140   28.0220   15.4910 O   0  0  0  0  0  0  0  0  0  0  0  0
   21.0670   27.2440   16.6850 C   0  0  0  0  0  0  0  0  0  0  0  0
   21.8720   25.9380   16.6390 C   0  0  0  0  0  0  0  0  0  0  0  0
   23.0320   25.9150   17.4730 O   0  0  0  0  0  0  0  0  0  0  0  0
   23.9430   27.0090   17.3210 C   0  0  0  0  0  0  0  0  0  0  0  0
   24.7400   26.9830   16.0120 C   0  0  0  0  0  0  0  0  0  0  0  0
   25.5830   28.1400   15.9380 O   0  0  0  0  0  0  0  0  0  0  0  0
   26.6290   28.1490   16.9180 C   0  0  0  0  0  0  0  0  0  0  0  0
   28.0030   27.7770   16.3480 C   0  0  0  0  0  0  0  0  0  0  0  0
   28.4810   26.5230   16.8490 O   0  0  0  0  0  0  0  0  0  0  0  0
   29.8700   26.3160   16.5920 C   0  0  0  0  0  0  0  0  0  0  0  0
   30.2470   26.9510   15.2560 C   0  0  0  0  0  0  0  0  0  0  0  0
   30.3000   25.9270   14.2670 O   0  0  0  0  0  0  0  0  0  0  0  0
   29.1710   25.9260   13.3830 C   0  0  0  0  0  0  0  0  0  0  0  0
   28.2250   24.7330   13.5880 C   0  0  0  0  0  0  0  0  0  0  0  0
   28.3800   23.6810   12.6310 O   0  0  0  0  0  0  0  0  0  0  0  0
   27.8990   23.9700   11.3120 C   0  0  0  0  0  0  0  0  0  0  0  0
   26.5800   23.2740   10.9620 C   0  0  0  0  0  0  0  0  0  0  0  0
   25.5920   24.2610   10.6500 O   0  0  0  0  0  0  0  0  0  0  0  0
   24.3720   24.0710   11.3840 C   0  0  0  0  0  0  0  0  0  0  0  0
   24.5230   24.5570   12.8110 C   0  0  0  0  0  0  0  0  0  0  0  0
   23.4580   23.9730   13.7330 C   0  0  0  0  0  0  0  0  0  0  0  0
   23.8520   23.5460   14.8520 O   0  0  0  0  0  0  0  0  0  0  0  0
   22.2880   24.0030   13.2560 O   0  0  0  0  0  1  0  0  0  0  0  0
   15.8049   25.3367    8.9220 H   0  0  0  0  0  0  0  0  0  0  0  0
   15.3554   26.0274   10.5531 H   0  0  0  0  0  0  0  0  0  0  0  0
   16.4705   24.0958   11.6268 H   0  0  0  0  0  0  0  0  0  0  0  0
   15.0386   23.6620   10.5646 H   0  0  0  0  0  0  0  0  0  0  0  0
   18.4693   21.7845   10.0115 H   0  0  0  0  0  0  0  0  0  0  0  0
   18.8031   23.5895   10.1643 H   0  0  0  0  0  0  0  0  0  0  0  0
   18.3653   23.6440   12.3816 H   0  0  0  0  0  0  0  0  0  0  0  0
   17.2590   22.1950   12.2984 H   0  0  0  0  0  0  0  0  0  0  0  0
   18.6027   22.1966   14.3442 H   0  0  0  0  0  0  0  0  0  0  0  0
   18.6227   20.4539   13.8638 H   0  0  0  0  0  0  0  0  0  0  0  0
   20.6733   20.2035   14.7442 H   0  0  0  0  0  0  0  0  0  0  0  0
   21.3093   21.5153   13.6954 H   0  0  0  0  0  0  0  0  0  0  0  0
   18.8630   21.4445   16.3870 H   0  0  0  0  0  0  0  0  0  0  0  0
   20.3720   20.7079   17.0602 H   0  0  0  0  0  0  0  0  0  0  0  0
   20.2676   22.1684   18.7455 H   0  0  0  0  0  0  0  0  0  0  0  0
   20.5648   23.4866   17.5186 H   0  0  0  0  0  0  0  0  0  0  0  0
   18.0758   22.9128   18.9243 H   0  0  0  0  0  0  0  0  0  0  0  0
   16.6462   24.6824   18.8207 H   0  0  0  0  0  0  0  0  0  0  0  0
   16.4370   25.5852   17.2595 H   0  0  0  0  0  0  0  0  0  0  0  0
   15.9427   22.6025   17.4508 H   0  0  0  0  0  0  0  0  0  0  0  0
   14.6721   23.8397   17.8741 H   0  0  0  0  0  0  0  0  0  0  0  0
   14.1456   24.0888   15.7500 H   0  0  0  0  0  0  0  0  0  0  0  0
   15.8962   24.5039   15.3777 H   0  0  0  0  0  0  0  0  0  0  0  0
   16.1363   22.6601   14.2197 H   0  0  0  0  0  0  0  0  0  0  0  0
   15.6058   21.6826   15.6747 H   0  0  0  0  0  0  0  0  0  0  0  0
   14.3980   21.8041   13.2243 H   0  0  0  0  0  0  0  0  0  0  0  0
   10.9462   22.5556   15.5375 H   0  0  0  0  0  0  0  0  0  0  0  0
   10.6425   22.5370   13.7818 H   0  0  0  0  0  0  0  0  0  0  0  0
   11.1897   20.4146   15.2009 H   0  0  0  0  0  0  0  0  0  0  0  0
   13.6217   20.8132   15.9162 H   0  0  0  0  0  0  0  0  0  0  0  0
   14.5479   19.0192   14.4004 H   0  0  0  0  0  0  0  0  0  0  0  0
   11.1186   20.4498   12.4760 H   0  0  0  0  0  0  0  0  0  0  0  0
   17.2180   27.3717   11.6970 H   0  0  0  0  0  0  0  0  0  0  0  0
   17.4125   25.6354   12.0977 H   0  0  0  0  0  0  0  0  0  0  0  0
   19.7084   25.8531   10.8361 H   0  0  0  0  0  0  0  0  0  0  0  0
   19.4635   27.6335   11.1010 H   0  0  0  0  0  0  0  0  0  0  0  0
   21.0783   28.0185   12.3373 H   0  0  0  0  0  0  0  0  0  0  0  0
   19.8212   28.4296   13.5544 H   0  0  0  0  0  0  0  0  0  0  0  0
   21.3166   26.1829   14.5536 H   0  0  0  0  0  0  0  0  0  0  0  0
   22.4890   27.4340   13.9826 H   0  0  0  0  0  0  0  0  0  0  0  0
   21.4138   27.8421   17.5406 H   0  0  0  0  0  0  0  0  0  0  0  0
   20.0040   26.9779   16.7815 H   0  0  0  0  0  0  0  0  0  0  0  0
   21.2098   25.1175   16.9525 H   0  0  0  0  0  0  0  0  0  0  0  0
   22.2340   25.8357   15.6053 H   0  0  0  0  0  0  0  0  0  0  0  0
   23.3670   27.9455   17.3561 H   0  0  0  0  0  0  0  0  0  0  0  0
   24.6741   26.9287   18.1389 H   0  0  0  0  0  0  0  0  0  0  0  0
   25.3607   26.0754   15.9795 H   0  0  0  0  0  0  0  0  0  0  0  0
   24.0434   26.9841   15.1607 H   0  0  0  0  0  0  0  0  0  0  0  0
   26.6928   29.1585   17.3501 H   0  0  0  0  0  0  0  0  0  0  0  0
   26.3740   27.3888   17.6710 H   0  0  0  0  0  0  0  0  0  0  0  0
   27.9255   27.7133   15.2526 H   0  0  0  0  0  0  0  0  0  0  0  0
   28.7161   28.5554   16.6572 H   0  0  0  0  0  0  0  0  0  0  0  0
   30.4631   26.7765   17.3959 H   0  0  0  0  0  0  0  0  0  0  0  0
   30.0759   25.2362   16.5527 H   0  0  0  0  0  0  0  0  0  0  0  0
   29.4916   27.6995   14.9748 H   0  0  0  0  0  0  0  0  0  0  0  0
   31.2255   27.4469   15.3375 H   0  0  0  0  0  0  0  0  0  0  0  0
   28.6013   26.8526   13.5467 H   0  0  0  0  0  0  0  0  0  0  0  0
   29.5655   25.8502   12.3590 H   0  0  0  0  0  0  0  0  0  0  0  0
   28.4095   24.3164   14.5892 H   0  0  0  0  0  0  0  0  0  0  0  0
   27.2027   25.1199   13.4644 H   0  0  0  0  0  0  0  0  0  0  0  0
   27.7491   25.0566   11.2291 H   0  0  0  0  0  0  0  0  0  0  0  0
   28.6547   23.5911   10.6082 H   0  0  0  0  0  0  0  0  0  0  0  0
   26.7306   22.6173   10.0925 H   0  0  0  0  0  0  0  0  0  0  0  0
   26.2421   22.6729   11.8190 H   0  0  0  0  0  0  0  0  0  0  0  0
   23.5646   24.6351   10.8942 H   0  0  0  0  0  0  0  0  0  0  0  0
   24.1330   22.9974   11.4000 H   0  0  0  0  0  0  0  0  0  0  0  0
   25.5149   24.2611   13.1831 H   0  0  0  0  0  0  0  0  0  0  0  0
   24.4064   25.6508   12.8098 H   0  0  0  0  0  0  0  0  0  0  0  0
  2  1  1  0
  3  2  1  0
  4  3  1  0
  5  4  1  0
  6  5  1  0
  7  6  1  0
  8  7  1  0
  9  8  1  0
 10  9  1  0
 11 10  1  0
 13 12  2  0
 14 13  1  0
 14 11  1  0
 15 13  1  0
 16 15  1  0
 17 16  1  0
 18 17  1  0
 19 18  1  0
 20 19  1  0
 21 20  1  0
 22 21  1  0
 23 22  1  0
 23 19  1  0
 24 23  1  0
 25 24  1  0
 26 25  2  0
 27 25  1  0
 27 22  1  0
 28  1  1  0
 29 28  1  0
 30 29  1  0
 31 30  1  0
 32 31  1  0
 33 32  1  0
 34 33  1  0
 35 34  1  0
 36 35  1  0
 37 36  1  0
 38 37  1  0
 39 38  1  0
 40 39  1  0
 41 40  1  0
 42 41  1  0
 43 42  1  0
 44 43  1  0
 45 44  1  0
 46 45  1  0
 47 46  1  0
 48 47  1  0
 49 48  1  0
 50 49  1  0
 51 50  1  0
 52 51  1  0
 53 52  1  0
 54 53  1  0
 55 54  1  0
 56 55  2  0
 57 55  1  0
  1 58  1  0
  1 59  1  0
  2 60  1  0
  2 61  1  0
  4 62  1  0
  4 63  1  0
  5 64  1  0
  5 65  1  0
  7 66  1  0
  7 67  1  0
  8 68  1  0
  8 69  1  0
 10 70  1  0
 10 71  1  0
 11 72  1  0
 11 73  1  0
 14 74  1  0
 15 75  1  0
 15 76  1  0
 16 77  1  0
 16 78  1  0
 17 79  1  0
 17 80  1  0
 18 81  1  0
 18 82  1  0
 19 83  1  6
 21 84  1  0
 21 85  1  0
 22 86  1  1
 23 87  1  1
 24 88  1  0
 27 89  1  0
 29 90  1  0
 29 91  1  0
 30 92  1  0
 30 93  1  0
 32 94  1  0
 32 95  1  0
 33 96  1  0
 33 97  1  0
 35 98  1  0
 35 99  1  0
 36100  1  0
 36101  1  0
 38102  1  0
 38103  1  0
 39104  1  0
 39105  1  0
 41106  1  0
 41107  1  0
 42108  1  0
 42109  1  0
 44110  1  0
 44111  1  0
 45112  1  0
 45113  1  0
 47114  1  0
 47115  1  0
 48116  1  0
 48117  1  0
 50118  1  0
 50119  1  0
 51120  1  0
 51121  1  0
 53122  1  0
 53123  1  0
 54124  1  0
 54125  1  0
M  CHG  1  57  -1
M  END
$$$$
=
     RDKit          3D

 28 28  0  0  0  0  0  0  0  0999 V2000
   18.9430   15.5970    3.7020 S   0  0  0  0  0  6  0  0  0  0  0  0
   19.6340   14.3400    3.4920 O   0  0  0  0  0  0  0  0  0  0  0  0
   18.9810   16.6480    2.7100 O   0  0  0  0  0  0  0  0  0  0  0  0
   17.2350   15.1840    3.9980 C   0  0  0  0  0  0  0  0  0  0  0  0
   16.6390   14.1660    3.2490 C   0  0  0  0  0  0  0  0  0  0  0  0
   15.2970   13.8500    3.4630 C   0  0  0  0  0  0  0  0  0  0  0  0
   14.5480   14.5430    4.4260 C   0  0  0  0  0  0  0  0  0  0  0  0
   15.1550   15.5770    5.1540 C   0  0  0  0  0  0  0  0  0  0  0  0
   16.4970   15.8980    4.9440 C   0  0  0  0  0  0  0  0  0  0  0  0
   13.0980   14.2210    4.6330 C   0  0  0  0  0  0  0  0  0  0  0  0
   19.3970   16.1900    5.2060 N   0  0  0  0  0  0  0  0  0  0  0  0
   20.1630   18.4760    5.6570 C   0  0  0  0  0  0  0  0  0  0  0  0
   20.6120   17.0820    5.2540 C   0  0  1  0  0  0  0  0  0  0  0  0
   21.5740   16.5440    6.3570 C   0  0  0  0  0  0  0  0  0  0  0  0
   22.7010   17.1320    6.3850 O   0  0  0  0  0  0  0  0  0  0  0  0
   21.1330   15.5920    7.0580 O   0  0  0  0  0  1  0  0  0  0  0  0
   17.2238   13.6176    2.4959 H   0  0  0  0  0  0  0  0  0  0  0  0
   14.8229   13.0521    2.8727 H   0  0  0  0  0  0  0  0  0  0  0  0
   14.5689   16.1391    5.8960 H   0  0  0  0  0  0  0  0  0  0  0  0
   16.9697   16.7075    5.5195 H   0  0  0  0  0  0  0  0  0  0  0  0
   12.8832   14.1733    5.7108 H   0  0  0  0  0  0  0  0  0  0  0  0
   12.4789   15.0035    4.1700 H   0  0  0  0  0  0  0  0  0  0  0  0
   12.8683   13.2500    4.1700 H   0  0  0  0  0  0  0  0  0  0  0  0
   18.6023   16.7277    5.5804 H   0  0  0  0  0  0  0  0  0  0  0  0
   20.1390   18.5506    6.7542 H   0  0  0  0  0  0  0  0  0  0  0  0
   20.8673   19.2188    5.2543 H   0  0  0  0  0  0  0  0  0  0  0  0
   19.1575   18.6681    5.2543 H   0  0  0  0  0  0  0  0  0  0  0  0
   21.1154   17.1015    4.2761 H   0  0  0  0  0  0  0  0  0  0  0  0
  2  1  2  0
  3  1  2  0
  4  1  1  0
  5  4  2  0
  6  5  1  0
  7  6  2  0
  8  7  1  0
  9  8  2  0
  9  4  1  0
 10  7  1  0
 11  1  1  0
 13 11  1  0
 13 12  1  0
 14 13  1  0
 15 14  2  0
 16 14  1  0
  5 17  1  0
  6 18  1  0
  8 19  1  0
  9 20  1  0
 10 21  1  0
 10 22  1  0
 10 23  1  0
 11 24  1  0
 12 25  1  0
 12 26  1  0
 12 27  1  0
 13 28  1  6
M  CHG  1  16  -1
M  END
$$$$
=
     RDKit          3D

 28 29  0  0  0  0  0  0  0  0999 V2000
   18.8670   14.9250    3.1410 N   0  0  0  0  0  0  0  0  0  0  0  0
   17.9230   14.6810    4.0040 C   0  0  0  0  0  0  0  0  0  0  0  0
   16.6530   14.0160    3.6310 C   0  0  0  0  0  0  0  0  0  0  0  0
   16.7070   12.9580    2.7060 C   0  0  0  0  0  0  0  0  0  0  0  0
   15.5520   12.2580    2.3570 C   0  0  0  0  0  0  0  0  0  0  0  0
   14.3350   12.6030    2.9340 C   0  0  0  0  0  0  0  0  0  0  0  0
   14.2730   13.6570    3.8480 C   0  0  0  0  0  0  0  0  0  0  0  0
   15.4240   14.3890    4.2050 C   0  0  0  0  0  0  0  0  0  0  0  0
   15.2720   15.5380    5.1680 C   0  0  0  0  0  0  0  0  0  0  0  0
   15.4870   15.3050    6.3980 O   0  0  0  0  0  0  0  0  0  0  0  0
   14.9480   16.6600    4.6720 O   0  0  0  0  0  1  0  0  0  0  0  0
   19.2190   17.6920    3.0720 O   0  0  0  0  0  0  0  0  0  0  0  0
   20.0380   16.9680    3.6360 C   0  0  0  0  0  0  0  0  0  0  0  0
   19.9430   15.5820    3.6750 N   0  0  0  0  0  0  0  0  0  0  0  0
   21.2120   17.4940    4.3220 C   0  0  0  0  0  0  0  0  0  0  0  0
   22.1350   18.4860    4.0160 C   0  0  0  0  0  0  0  0  0  0  0  0
   23.0610   18.5370    5.0870 C   0  0  0  0  0  0  0  0  0  0  0  0
   22.6580   17.5810    5.9850 C   0  0  0  0  0  0  0  0  0  0  0  0
   21.5470   16.9470    5.5360 O   0  0  0  0  0  0  0  0  0  0  0  0
   18.0746   14.9806    5.0515 H   0  0  0  0  0  0  0  0  0  0  0  0
   17.6700   12.6796    2.2530 H   0  0  0  0  0  0  0  0  0  0  0  0
   15.6039   11.4360    1.6279 H   0  0  0  0  0  0  0  0  0  0  0  0
   13.4230   12.0470    2.6711 H   0  0  0  0  0  0  0  0  0  0  0  0
   13.3054   13.9219    4.2992 H   0  0  0  0  0  0  0  0  0  0  0  0
   20.6983   15.0373    4.1151 H   0  0  0  0  0  0  0  0  0  0  0  0
   22.1450   19.1135    3.1126 H   0  0  0  0  0  0  0  0  0  0  0  0
   23.9280   19.2076    5.1799 H   0  0  0  0  0  0  0  0  0  0  0  0
   23.1652   17.3600    6.9358 H   0  0  0  0  0  0  0  0  0  0  0  0
  2  1  2  0
  3  2  1  0
  4  3  2  0
  5  4  1  0
  6  5  2  0
  7  6  1  0
  8  7  2  0
  8  3  1  0
  9  8  1  0
 10  9  2  0
 11  9  1  0
 13 12  2  0
 14  1  1  0
 14 13  1  0
 15 13  1  0
 16 15  2  0
 17 16  1  0
 18 17  2  0
 19 15  1  0
 19 18  1  0
  2 20  1  0
  4 21  1  0
  5 22  1  0
  6 23  1  0
  7 24  1  0
 14 25  1  0
 16 26  1  0
 17 27  1  0
 18 28  1  0
M  CHG  1  11  -1
M  END
$$$$
=
     RDKit          3D

 24 24  0  0  0  0  0  0  0  0999 V2000
   17.4590   15.3550    4.1370 C   0  0  0  0  0  0  0  0  0  0  0  0
   18.3560   14.3590    4.1970 N   0  0  0  0  0  0  0  0  0  0  0  0
   19.5430   14.6730    4.7630 C   0  0  0  0  0  0  0  0  0  0  0  0
   19.8780   15.9180    5.2700 C   0  0  0  0  0  0  0  0  0  0  0  0
   18.8790   16.8740    5.1590 C   0  0  0  0  0  0  0  0  0  0  0  0
   17.6680   16.6030    4.5960 N   0  0  0  0  0  0  0  0  0  0  0  0
   19.0400   18.2840    5.6450 C   0  0  0  0  0  0  0  0  0  0  0  0
   14.9780   15.5410    4.4250 C   0  0  0  0  0  0  0  0  0  0  0  0
   16.1120   15.0680    3.5160 C   0  0  0  0  0  0  0  0  0  0  0  0
   15.9700   13.5820    3.1850 C   0  0  0  0  0  0  0  0  0  0  0  0
   21.2330   16.1280    5.8720 C   0  0  0  0  0  0  0  0  0  0  0  0
   22.1490   16.6240    5.1440 O   0  0  0  0  0  0  0  0  0  0  0  0
   21.3760   15.7920    7.0900 O   0  0  0  0  0  1  0  0  0  0  0  0
   20.3013   13.8786    4.8258 H   0  0  0  0  0  0  0  0  0  0  0  0
   19.0412   18.2948    6.7449 H   0  0  0  0  0  0  0  0  0  0  0  0
   19.9908   18.6937    5.2732 H   0  0  0  0  0  0  0  0  0  0  0  0
   18.2061   18.8975    5.2732 H   0  0  0  0  0  0  0  0  0  0  0  0
   15.2752   15.4170    5.4768 H   0  0  0  0  0  0  0  0  0  0  0  0
   14.7671   16.6021    4.2262 H   0  0  0  0  0  0  0  0  0  0  0  0
   14.0756   14.9443    4.2262 H   0  0  0  0  0  0  0  0  0  0  0  0
   16.0442   15.6318    2.5739 H   0  0  0  0  0  0  0  0  0  0  0  0
   15.9146   13.0022    4.1181 H   0  0  0  0  0  0  0  0  0  0  0  0
   15.0526   13.4228    2.5994 H   0  0  0  0  0  0  0  0  0  0  0  0
   16.8407   13.2520    2.5994 H   0  0  0  0  0  0  0  0  0  0  0  0
  2  1  2  0
  3  2  1  0
  4  3  2  0
  5  4  1  0
  6  1  1  0
  6  5  2  0
  7  5  1  0
  9  8  1  0
  9  1  1  0
 10  9  1  0
 11  4  1  0
 12 11  2  0
 13 11  1  0
  3 14  1  0
  7 15  1  0
  7 16  1  0
  7 17  1  0
  8 18  1  0
  8 19  1  0
  8 20  1  0
  9 21  1  0
 10 22  1  0
 10 23  1  0
 10 24  1  0
M  CHG  1  13  -1
M  END
$$$$
=
     RDKit          3D

 47 46  0  0  0  0  0  0  0  0999 V2000
   15.0360   12.1270    2.5490 C   0  0  0  0  0  0  0  0  0  0  0  0
   14.3040   12.2190    3.8920 C   0  0  0  0  0  0  0  0  0  0  0  0
   13.0720   13.1270    3.8520 C   0  0  0  0  0  0  0  0  0  0  0  0
   13.3040   14.4090    4.6550 C   0  0  0  0  0  0  0  0  0  0  0  0
   14.1690   15.4410    3.9240 C   0  0  0  0  0  0  0  0  0  0  0  0
   15.1160   16.2070    4.8540 C   0  0  0  0  0  0  0  0  0  0  0  0
   15.6040   15.3610    6.0360 C   0  0  0  0  0  0  0  0  0  0  0  0
   17.4420   17.1500    6.1020 C   0  0  0  0  0  0  0  0  0  0  0  0
   16.9250   15.8320    6.6530 C   0  0  0  0  0  0  0  0  0  0  0  0
   16.0920   13.2060    2.2920 C   0  0  0  0  0  0  0  0  0  0  0  0
   17.3150   13.1730    3.2170 C   0  0  0  0  0  0  0  0  0  0  0  0
   18.0250   14.5150    3.4290 C   0  0  0  0  0  0  0  0  0  0  0  0
   19.3360   14.3880    4.1450 C   0  0  0  0  0  0  0  0  0  0  0  0
   20.1710   15.4170    4.3640 C   0  0  0  0  0  0  0  0  0  0  0  0
   21.4860   15.3010    5.0890 C   0  0  0  0  0  0  0  0  0  0  0  0
   21.4760   16.0950    6.4040 C   0  0  0  0  0  0  0  0  0  0  0  0
   21.0010   15.4840    7.4060 O   0  0  0  0  0  0  0  0  0  0  0  0
   21.9160   17.2790    6.3240 O   0  0  0  0  0  1  0  0  0  0  0  0
   15.5353   11.1479    2.5028 H   0  0  0  0  0  0  0  0  0  0  0  0
   14.2655   12.2722    1.7774 H   0  0  0  0  0  0  0  0  0  0  0  0
   13.9829   11.2083    4.1840 H   0  0  0  0  0  0  0  0  0  0  0  0
   15.0070   12.6572    4.6157 H   0  0  0  0  0  0  0  0  0  0  0  0
   12.8555   13.3924    2.8067 H   0  0  0  0  0  0  0  0  0  0  0  0
   12.2248   12.5850    4.2976 H   0  0  0  0  0  0  0  0  0  0  0  0
   12.3269   14.8652    4.8722 H   0  0  0  0  0  0  0  0  0  0  0  0
   13.8445   14.1240    5.5697 H   0  0  0  0  0  0  0  0  0  0  0  0
   14.7712   14.9179    3.1666 H   0  0  0  0  0  0  0  0  0  0  0  0
   13.4869   16.1781    3.4752 H   0  0  0  0  0  0  0  0  0  0  0  0
   15.9902   16.5349    4.2723 H   0  0  0  0  0  0  0  0  0  0  0  0
   14.5561   17.0593    5.2666 H   0  0  0  0  0  0  0  0  0  0  0  0
   14.8313   15.3861    6.8185 H   0  0  0  0  0  0  0  0  0  0  0  0
   15.7858   14.3499    5.6426 H   0  0  0  0  0  0  0  0  0  0  0  0
   17.7041   17.8183    6.9355 H   0  0  0  0  0  0  0  0  0  0  0  0
   18.3342   16.9650    5.4858 H   0  0  0  0  0  0  0  0  0  0  0  0
   16.6620   17.6210    5.4858 H   0  0  0  0  0  0  0  0  0  0  0  0
   16.7764   15.9471    7.7368 H   0  0  0  0  0  0  0  0  0  0  0  0
   17.6776   15.0703    6.4011 H   0  0  0  0  0  0  0  0  0  0  0  0
   16.4475   13.0914    1.2574 H   0  0  0  0  0  0  0  0  0  0  0  0
   15.5933   14.1666    2.4883 H   0  0  0  0  0  0  0  0  0  0  0  0
   16.9852   12.8062    4.2002 H   0  0  0  0  0  0  0  0  0  0  0  0
   18.0487   12.5209    2.7205 H   0  0  0  0  0  0  0  0  0  0  0  0
   18.2077   14.9721    2.4453 H   0  0  0  0  0  0  0  0  0  0  0  0
   17.3692   15.1335    4.0593 H   0  0  0  0  0  0  0  0  0  0  0  0
   19.6313   13.3941    4.5124 H   0  0  0  0  0  0  0  0  0  0  0  0
   19.8754   16.4082    3.9898 H   0  0  0  0  0  0  0  0  0  0  0  0
   21.6785   14.2413    5.3128 H   0  0  0  0  0  0  0  0  0  0  0  0
   22.2741   15.7142    4.4424 H   0  0  0  0  0  0  0  0  0  0  0  0
  2  1  1  0
  3  2  1  0
  4  3  1  0
  5  4  1  0
  6  5  1  0
  7  6  1  0
  9  7  1  0
  9  8  1  0
 10  1  1  0
 11 10  1  0
 12 11  1  0
 13 12  1  0
 14 13  2  0
 15 14  1  0
 16 15  1  0
 17 16  2  0
 18 16  1  0
  1 19  1  0
  1 20  1  0
  2 21  1  0
  2 22  1  0
  3 23  1  0
  3 24  1  0
  4 25  1  0
  4 26  1  0
  5 27  1  0
  5 28  1  0
  6 29  1  0
  6 30  1  0
  7 31  1  0
  7 32  1  0
  8 33  1  0
  8 34  1  0
  8 35  1  0
  9 36  1  0
  9 37  1  0
 10 38  1  0
 10 39  1  0
 11 40  1  0
 11 41  1  0
 12 42  1  0
 12 43  1  0
 13 44  1  0
 14 45  1  0
 15 46  1  0
 15 47  1  0
M  CHG  1  18  -1
M  END
$$$$
=
     RDKit          3D

 41 41  0  0  0  0  0  0  0  0999 V2000
   30.0040   26.2610   14.1630 O   0  0  0  0  0  0  0  0  0  0  0  0
   28.9220   26.6880   14.5480 C   0  0  0  0  0  0  0  0  0  0  0  0
   27.7190   26.3760   13.9650 N   0  0  0  0  0  0  0  0  0  0  0  0
   26.4040   26.7900   14.4460 C   0  0  1  0  0  0  0  0  0  0  0  0
   25.4650   26.1790   13.4110 C   0  0  0  0  0  0  0  0  0  0  0  0
   26.2670   25.9590   12.2350 O   0  0  0  0  0  0  0  0  0  0  0  0
   27.6240   25.7420   12.6710 C   0  0  0  0  0  0  0  0  0  0  0  0
   27.8750   24.2350   12.7560 C   0  0  0  0  0  0  0  0  0  0  0  0
   28.4980   26.3820   11.5890 C   0  0  0  0  0  0  0  0  0  0  0  0
   26.0790   26.3120   15.8770 C   0  0  0  0  0  0  0  0  0  0  0  0
   25.3110   27.3530   16.6880 C   0  0  0  0  0  0  0  0  0  0  0  0
   23.8820   26.9710   17.0660 C   0  0  0  0  0  0  0  0  0  0  0  0
   23.7790   26.3040   18.1310 O   0  0  0  0  0  0  0  0  0  0  0  0
   22.9830   27.3740   16.2780 O   0  0  0  0  0  1  0  0  0  0  0  0
   28.7720   27.5470   15.5870 O   0  0  0  0  0  0  0  0  0  0  0  0
   29.0840   28.9550   15.4650 C   0  0  0  0  0  0  0  0  0  0  0  0
   28.7530   29.4800   14.0640 C   0  0  0  0  0  0  0  0  0  0  0  0
   30.5380   29.2390   15.8560 C   0  0  0  0  0  0  0  0  0  0  0  0
   28.1590   29.6460   16.4790 C   0  0  0  0  0  0  0  0  0  0  0  0
   26.3222   27.8833   14.5349 H   0  0  0  0  0  0  0  0  0  0  0  0
   25.0563   25.2266   13.7796 H   0  0  0  0  0  0  0  0  0  0  0  0
   24.6102   26.8386   13.2005 H   0  0  0  0  0  0  0  0  0  0  0  0
   27.9257   23.9307   13.8119 H   0  0  0  0  0  0  0  0  0  0  0  0
   27.0539   23.6979   12.2586 H   0  0  0  0  0  0  0  0  0  0  0  0
   28.8258   23.9930   12.2586 H   0  0  0  0  0  0  0  0  0  0  0  0
   29.2986   26.9683   12.0636 H   0  0  0  0  0  0  0  0  0  0  0  0
   28.9423   25.5941   10.9630 H   0  0  0  0  0  0  0  0  0  0  0  0
   27.8810   27.0434   10.9630 H   0  0  0  0  0  0  0  0  0  0  0  0
   25.4707   25.3978   15.8126 H   0  0  0  0  0  0  0  0  0  0  0  0
   27.0346   26.1307   16.3908 H   0  0  0  0  0  0  0  0  0  0  0  0
   25.8694   27.5372   17.6177 H   0  0  0  0  0  0  0  0  0  0  0  0
   25.2248   28.2368   16.0388 H   0  0  0  0  0  0  0  0  0  0  0  0
   28.1681   30.4077   14.1488 H   0  0  0  0  0  0  0  0  0  0  0  0
   29.6864   29.6836   13.5187 H   0  0  0  0  0  0  0  0  0  0  0  0
   28.1669   28.7256   13.5187 H   0  0  0  0  0  0  0  0  0  0  0  0
   30.6262   29.2562   16.9523 H   0  0  0  0  0  0  0  0  0  0  0  0
   31.1880   28.4508   15.4482 H   0  0  0  0  0  0  0  0  0  0  0  0
   30.8437   30.2138   15.4482 H   0  0  0  0  0  0  0  0  0  0  0  0
   28.4865   29.4013   17.5002 H   0  0  0  0  0  0  0  0  0  0  0  0
   28.2017   30.7352   16.3313 H   0  0  0  0  0  0  0  0  0  0  0  0
   27.1266   29.2961   16.3313 H   0  0  0  0  0  0  0  0  0  0  0  0
  2  1  2  0
  3  2  1  0
  4  3  1  0
  5  4  1  0
  6  5  1  0
  7  6  1  0
  7  3  1  0
  8  7  1  0
  9  7  1  0
 10  4  1  0
 11 10  1  0
 12 11  1  0
 13 12  2  0
 14 12  1  0
 15  2  1  0
 16 15  1  0
 17 16  1  0
 18 16  1  0
 19 16  1  0
  4 20  1  1
  5 21  1  0
  5 22  1  0
  8 23  1  0
  8 24  1  0
  8 25  1  0
  9 26  1  0
  9 27  1  0
  9 28  1  0
 10 29  1  0
 10 30  1  0
 11 31  1  0
 11 32  1  0
 17 33  1  0
 17 34  1  0
 17 35  1  0
 18 36  1  0
 18 37  1  0
 18 38  1  0
 19 39  1  0
 19 40  1  0
 19 41  1  0
M  CHG  1  14  -1
M  END
$$$$
=
     RDKit          3D

 29 30  0  0  0  0  0  0  0  0999 V2000
   20.4030   16.1340    5.0900 C   0  0  2  0  0  0  0  0  0  0  0  0
   20.1170   17.5360    5.3680 O   0  0  0  0  0  0  0  0  0  0  0  0
   19.6510   18.2320    4.2120 C   0  0  0  0  0  0  0  0  0  0  0  0
   20.1590   17.6070    2.9160 C   0  0  0  0  0  0  0  0  0  0  0  0
   19.7040   16.2630    2.7250 O   0  0  0  0  0  0  0  0  0  0  0  0
   19.5220   15.5320    3.9780 C   0  0  2  0  0  0  0  0  0  0  0  0
   18.0110   15.4060    4.1780 C   0  0  0  0  0  0  0  0  0  0  0  0
   17.3240   14.3850    3.4950 C   0  0  0  0  0  0  0  0  0  0  0  0
   15.9440   14.2120    3.6380 C   0  0  0  0  0  0  0  0  0  0  0  0
   15.2100   15.0640    4.4660 C   0  0  0  0  0  0  0  0  0  0  0  0
   15.8840   16.0710    5.1640 C   0  0  0  0  0  0  0  0  0  0  0  0
   17.2650   16.2420    5.0170 C   0  0  0  0  0  0  0  0  0  0  0  0
   13.7380   14.8600    4.6600 C   0  0  0  0  0  0  0  0  0  0  0  0
   19.6440   14.2080    6.3230 O   0  0  0  0  0  1  0  0  0  0  0  0
   20.3950   15.2240    6.3440 C   0  0  0  0  0  0  0  0  0  0  0  0
   21.1420   15.6280    7.2880 O   0  0  0  0  0  0  0  0  0  0  0  0
   21.4377   16.1556    4.7172 H   0  0  0  0  0  0  0  0  0  0  0  0
   18.5512   18.2126    4.2068 H   0  0  0  0  0  0  0  0  0  0  0  0
   20.0343   19.2619    4.2619 H   0  0  0  0  0  0  0  0  0  0  0  0
   19.8087   18.2186    2.0715 H   0  0  0  0  0  0  0  0  0  0  0  0
   21.2570   17.5765    2.9747 H   0  0  0  0  0  0  0  0  0  0  0  0
   19.8956   14.4974    3.9840 H   0  0  0  0  0  0  0  0  0  0  0  0
   17.8852   13.7081    2.8340 H   0  0  0  0  0  0  0  0  0  0  0  0
   15.4344   13.4016    3.0962 H   0  0  0  0  0  0  0  0  0  0  0  0
   15.3222   16.7362    5.8362 H   0  0  0  0  0  0  0  0  0  0  0  0
   17.7725   17.0463    5.5697 H   0  0  0  0  0  0  0  0  0  0  0  0
   13.5108   14.8285    5.7358 H   0  0  0  0  0  0  0  0  0  0  0  0
   13.1881   15.6905    4.1933 H   0  0  0  0  0  0  0  0  0  0  0  0
   13.4347   13.9112    4.1933 H   0  0  0  0  0  0  0  0  0  0  0  0
  2  1  1  0
  3  2  1  0
  4  3  1  0
  5  4  1  0
  6  5  1  0
  6  1  1  0
  7  6  1  0
  8  7  2  0
  9  8  1  0
 10  9  2  0
 11 10  1  0
 12 11  2  0
 12  7  1  0
 13 10  1  0
 15  1  1  0
 15 14  1  0
 16 15  2  0
  1 17  1  6
  3 18  1  0
  3 19  1  0
  4 20  1  0
  4 21  1  0
  6 22  1  6
  8 23  1  0
  9 24  1  0
 11 25  1  0
 12 26  1  0
 13 27  1  0
 13 28  1  0
 13 29  1  0
M  CHG  1  14  -1
M  END
$$$$
=
     RDKit          3D

 50 50  0  0  0  0  0  0  0  0999 V2000
   25.7420   27.3480   16.1280 C   0  0  2  0  0  0  0  0  0  0  0  0
   26.0400   26.8530   13.7450 N   0  0  0  0  0  0  0  0  0  0  0  0
   26.0020   26.3200   15.0100 C   0  0  0  0  0  0  0  0  0  0  0  0
   26.1330   25.1160   15.2460 O   0  0  0  0  0  0  0  0  0  0  0  0
   25.9870   26.0490   12.5470 C   0  0  0  0  0  0  0  0  0  0  0  0
   27.3650   25.8860   11.8990 C   0  0  0  0  0  0  0  0  0  0  0  0
   28.4950   26.5930   12.6530 C   0  0  0  0  0  0  0  0  0  0  0  0
   30.3030   26.1520   14.1110 O   0  0  0  0  0  1  0  0  0  0  0  0
   29.3350   25.6330   13.4940 C   0  0  0  0  0  0  0  0  0  0  0  0
   28.9460   24.4270   13.4830 O   0  0  0  0  0  0  0  0  0  0  0  0
   24.2890   27.5150   16.2140 N   0  0  0  0  0  0  0  0  0  0  0  0
   23.5450   26.8190   17.1150 C   0  0  0  0  0  0  0  0  0  0  0  0
   23.9720   26.2300   18.0940 O   0  0  0  0  0  0  0  0  0  0  0  0
   22.2470   26.8810   16.7330 O   0  0  0  0  0  0  0  0  0  0  0  0
   21.5870   25.7200   16.1710 C   0  0  0  0  0  0  0  0  0  0  0  0
   20.4450   26.2970   15.3190 C   0  0  0  0  0  0  0  0  0  0  0  0
   20.9800   24.8350   17.2650 C   0  0  0  0  0  0  0  0  0  0  0  0
   22.5290   24.9330   15.2530 C   0  0  0  0  0  0  0  0  0  0  0  0
   26.4320   28.6690   15.7540 C   0  0  0  0  0  0  0  0  0  0  0  0
   27.9180   28.6550   16.0330 C   0  0  0  0  0  0  0  0  0  0  0  0
   28.7710   29.4840   15.2920 C   0  0  0  0  0  0  0  0  0  0  0  0
   30.1460   29.4750   15.5300 C   0  0  0  0  0  0  0  0  0  0  0  0
   30.6820   28.6380   16.5060 C   0  0  0  0  0  0  0  0  0  0  0  0
   29.8410   27.8070   17.2470 C   0  0  0  0  0  0  0  0  0  0  0  0
   28.4650   27.8150   17.0110 C   0  0  0  0  0  0  0  0  0  0  0  0
   26.1411   27.0208   17.0994 H   0  0  0  0  0  0  0  0  0  0  0  0
   26.1097   27.8759   13.6461 H   0  0  0  0  0  0  0  0  0  0  0  0
   25.5969   25.0535   12.8053 H   0  0  0  0  0  0  0  0  0  0  0  0
   25.3326   26.5602   11.8256 H   0  0  0  0  0  0  0  0  0  0  0  0
   27.5999   24.8124   11.8509 H   0  0  0  0  0  0  0  0  0  0  0  0
   27.3061   26.3515   10.9041 H   0  0  0  0  0  0  0  0  0  0  0  0
   29.1516   27.0861   11.9210 H   0  0  0  0  0  0  0  0  0  0  0  0
   28.0331   27.3181   13.3392 H   0  0  0  0  0  0  0  0  0  0  0  0
   23.8200   28.1749   15.5772 H   0  0  0  0  0  0  0  0  0  0  0  0
   19.6596   26.6938   15.9790 H   0  0  0  0  0  0  0  0  0  0  0  0
   20.8341   27.1067   14.6842 H   0  0  0  0  0  0  0  0  0  0  0  0
   20.0241   25.5034   14.6842 H   0  0  0  0  0  0  0  0  0  0  0  0
   21.2535   25.2338   18.2530 H   0  0  0  0  0  0  0  0  0  0  0  0
   19.8847   24.8260   17.1636 H   0  0  0  0  0  0  0  0  0  0  0  0
   21.3661   23.8100   17.1636 H   0  0  0  0  0  0  0  0  0  0  0  0
   23.2310   24.3465   15.8639 H   0  0  0  0  0  0  0  0  0  0  0  0
   21.9402   24.2546   14.6181 H   0  0  0  0  0  0  0  0  0  0  0  0
   23.0919   25.6331   14.6181 H   0  0  0  0  0  0  0  0  0  0  0  0
   26.2779   28.8541   14.6807 H   0  0  0  0  0  0  0  0  0  0  0  0
   25.9868   29.4614   16.3735 H   0  0  0  0  0  0  0  0  0  0  0  0
   28.3543   30.1456   14.5183 H   0  0  0  0  0  0  0  0  0  0  0  0
   30.8083   30.1305   14.9454 H   0  0  0  0  0  0  0  0  0  0  0  0
   31.7661   28.6322   16.6922 H   0  0  0  0  0  0  0  0  0  0  0  0
   30.2625   27.1450   18.0178 H   0  0  0  0  0  0  0  0  0  0  0  0
   27.8062   27.1573   17.5970 H   0  0  0  0  0  0  0  0  0  0  0  0
  3  2  1  0
  3  1  1  0
  4  3  2  0
  5  2  1  0
  6  5  1  0
  7  6  1  0
  9  8  1  0
  9  7  1  0
 10  9  2  0
 11  1  1  0
 12 11  1  0
 13 12  2  0
 14 12  1  0
 15 14  1  0
 16 15  1  0
 17 15  1  0
 18 15  1  0
 19  1  1  0
 20 19  1  0
 21 20  2  0
 22 21  1  0
 23 22  2  0
 24 23  1  0
 25 20  1  0
 25 24  2  0
  1 26  1  1
  2 27  1  0
  5 28  1  0
  5 29  1  0
  6 30  1  0
  6 31  1  0
  7 32  1  0
  7 33  1  0
 11 34  1  0
 16 35  1  0
 16 36  1  0
 16 37  1  0
 17 38  1  0
 17 39  1  0
 17 40  1  0
 18 41  1  0
 18 42  1  0
 18 43  1  0
 19 44  1  0
 19 45  1  0
 21 46  1  0
 22 47  1  0
 23 48  1  0
 24 49  1  0
 25 50  1  0
M  CHG  1   8  -1
M  END
$$$$
=
     RDKit          3D

 28 29  0  0  0  0  0  0  0  0999 V2000
   19.2360   14.9730    3.5480 C   0  0  0  0  0  0  0  0  0  0  0  0
   17.7680   14.6970    3.6920 C   0  0  0  0  0  0  0  0  0  0  0  0
   17.1560   13.6810    3.1240 N   0  0  0  0  0  0  0  0  0  0  0  0
   15.8090   13.7010    3.4420 C   0  0  0  0  0  0  0  0  0  0  0  0
   15.4110   14.7320    4.2940 C   0  0  0  0  0  0  0  0  0  0  0  0
   16.7830   15.6910    4.6910 S   0  0  0  0  0  0  0  0  0  0  0  0
   14.0750   14.8780    4.7090 C   0  0  0  0  0  0  0  0  0  0  0  0
   13.1320   13.9560    4.2440 C   0  0  0  0  0  0  0  0  0  0  0  0
   13.5070   12.9200    3.3930 C   0  0  0  0  0  0  0  0  0  0  0  0
   14.8390   12.7840    2.9890 C   0  0  0  0  0  0  0  0  0  0  0  0
   19.7820   16.0440    4.5080 C   0  0  2  0  0  0  0  0  0  0  0  0
   19.8410   17.4110    3.8330 C   0  0  0  0  0  0  0  0  0  0  0  0
   19.1650   17.4770    2.6710 F   0  0  0  0  0  0  0  0  0  0  0  0
   21.1200   17.7630    3.5510 F   0  0  0  0  0  0  0  0  0  0  0  0
   19.3390   18.3760    4.6440 F   0  0  0  0  0  0  0  0  0  0  0  0
   21.1770   15.6050    4.9820 C   0  0  0  0  0  0  0  0  0  0  0  0
   22.2950   17.0910    6.4170 O   0  0  0  0  0  1  0  0  0  0  0  0
   21.5110   16.1050    6.3850 C   0  0  0  0  0  0  0  0  0  0  0  0
   20.9910   15.4460    7.3260 O   0  0  0  0  0  0  0  0  0  0  0  0
   19.7814   14.0358    3.7331 H   0  0  0  0  0  0  0  0  0  0  0  0
   19.3822   15.3625    2.5297 H   0  0  0  0  0  0  0  0  0  0  0  0
   13.7796   15.6964    5.3820 H   0  0  0  0  0  0  0  0  0  0  0  0
   12.0810   14.0505    4.5545 H   0  0  0  0  0  0  0  0  0  0  0  0
   12.7515   12.2044    3.0364 H   0  0  0  0  0  0  0  0  0  0  0  0
   15.1295   11.9620    2.3182 H   0  0  0  0  0  0  0  0  0  0  0  0
   19.1082   16.1417    5.3720 H   0  0  0  0  0  0  0  0  0  0  0  0
   21.2182   14.5058    4.9819 H   0  0  0  0  0  0  0  0  0  0  0  0
   21.9134   16.0417    4.2914 H   0  0  0  0  0  0  0  0  0  0  0  0
  2  1  1  0
  3  2  2  0
  4  3  1  0
  5  4  2  0
  6  5  1  0
  6  2  1  0
  7  5  1  0
  8  7  2  0
  9  8  1  0
 10  9  2  0
 10  4  1  0
 11  1  1  0
 12 11  1  0
 13 12  1  0
 14 12  1  0
 15 12  1  0
 16 11  1  0
 18 16  1  0
 18 17  1  0
 19 18  2  0
  1 20  1  0
  1 21  1  0
  7 22  1  0
  8 23  1  0
  9 24  1  0
 10 25  1  0
 11 26  1  1
 16 27  1  0
 16 28  1  0
M  CHG  1  17  -1
M  END
$$$$
=
     RDKit          3D

 35 36  0  0  0  0  0  0  0  0999 V2000
   25.8750   26.3190   13.2100 C   0  0  0  0  0  0  0  0  0  0  0  0
   26.6330   25.3400   12.5590 C   0  0  0  0  0  0  0  0  0  0  0  0
   26.0320   24.5430   11.5750 C   0  0  0  0  0  0  0  0  0  0  0  0
   24.6930   24.6940   11.2090 C   0  0  0  0  0  0  0  0  0  0  0  0
   23.9450   25.6850   11.8660 C   0  0  0  0  0  0  0  0  0  0  0  0
   24.5260   26.4880   12.8590 C   0  0  0  0  0  0  0  0  0  0  0  0
   26.8560   23.5420   10.9270 N   0  0  0  0  0  4  0  0  0  0  0  0
   26.4170   22.3850   10.8640 O   0  0  0  0  0  0  0  0  0  0  0  0
   27.9650   23.9120   10.5150 O   0  0  0  0  0  1  0  0  0  0  0  0
   22.5490   25.9210   11.5060 N   0  0  0  0  0  4  0  0  0  0  0  0
   21.7610   24.9680   11.5390 O   0  0  0  0  0  0  0  0  0  0  0  0
   22.2270   27.0940   11.2430 O   0  0  0  0  0  1  0  0  0  0  0  0
   24.1850   23.9050   10.2100 O   0  0  0  0  0  0  0  0  0  0  0  0
   26.4830   27.1510   14.3220 C   0  0  0  0  0  0  0  0  0  0  0  0
   27.6430   26.4350   15.0330 C   0  0  1  0  0  0  0  0  0  0  0  0
   28.7420   27.4190   15.4110 C   0  0  0  0  0  0  0  0  0  0  0  0
   28.7280   28.7200   14.8850 C   0  0  0  0  0  0  0  0  0  0  0  0
   29.7110   29.6450   15.2410 C   0  0  0  0  0  0  0  0  0  0  0  0
   30.7230   29.2810   16.1280 C   0  0  0  0  0  0  0  0  0  0  0  0
   30.7530   27.9920   16.6550 C   0  0  0  0  0  0  0  0  0  0  0  0
   29.7690   27.0670   16.2990 C   0  0  0  0  0  0  0  0  0  0  0  0
   26.3560   26.2600   17.0420 O   0  0  0  0  0  1  0  0  0  0  0  0
   27.1510   25.6510   16.2680 C   0  0  0  0  0  0  0  0  0  0  0  0
   27.5610   24.4560   16.3370 O   0  0  0  0  0  0  0  0  0  0  0  0
   27.6926   25.1967   12.8173 H   0  0  0  0  0  0  0  0  0  0  0  0
   23.9211   27.2545   13.3656 H   0  0  0  0  0  0  0  0  0  0  0  0
   23.2377   23.9992    9.9382 H   0  0  0  0  0  0  0  0  0  0  0  0
   26.8601   28.0908   13.8923 H   0  0  0  0  0  0  0  0  0  0  0  0
   25.6965   27.3319   15.0694 H   0  0  0  0  0  0  0  0  0  0  0  0
   28.0671   25.7066   14.3262 H   0  0  0  0  0  0  0  0  0  0  0  0
   27.9331   29.0143   14.1839 H   0  0  0  0  0  0  0  0  0  0  0  0
   29.6871   30.6616   14.8214 H   0  0  0  0  0  0  0  0  0  0  0  0
   31.4963   30.0103   16.4111 H   0  0  0  0  0  0  0  0  0  0  0  0
   31.5527   27.7022   17.3525 H   0  0  0  0  0  0  0  0  0  0  0  0
   29.7998   26.0511   16.7197 H   0  0  0  0  0  0  0  0  0  0  0  0
  2  1  2  0
  3  2  1  0
  4  3  2  0
  5  4  1  0
  6  5  2  0
  6  1  1  0
  7  3  1  0
  8  7  2  0
  9  7  1  0
 10  5  1  0
 11 10  2  0
 12 10  1  0
 13  4  1  0
 14  1  1  0
 15 14  1  0
 16 15  1  0
 17 16  2  0
 18 17  1  0
 19 18  2  0
 20 19  1  0
 21 16  1  0
 21 20  2  0
 23 22  1  0
 23 15  1  0
 24 23  2  0
  2 25  1  0
  6 26  1  0
 13 27  1  0
 14 28  1  0
 14 29  1  0
 15 30  1  6
 17 31  1  0
 18 32  1  0
 19 33  1  0
 20 34  1  0
 21 35  1  0
M  CHG  5   7   1   9  -1  10   1  12  -1  22  -1
M  END
$$$$
=
     RDKit          3D

 43 45  0  0  0  0  0  0  0  0999 V2000
   27.3800   27.0850   14.2520 N   0  0  0  0  0  0  0  0  0  0  0  0
   27.2880   26.7490   12.9200 C   0  0  0  0  0  0  0  0  0  0  0  0
   28.1210   26.7930   12.0310 O   0  0  0  0  0  0  0  0  0  0  0  0
   25.9210   26.2850   12.6980 C   0  0  0  0  0  0  0  0  0  0  0  0
   25.2280   26.4210   13.8860 C   0  0  0  0  0  0  0  0  0  0  0  0
   26.1490   26.9870   14.8690 C   0  0  0  0  0  0  0  0  0  0  0  0
   25.7980   27.3870   15.9650 O   0  0  0  0  0  0  0  0  0  0  0  0
   23.8920   26.0890   13.9920 C   0  0  0  0  0  0  0  0  0  0  0  0
   23.2410   25.5890   12.8460 C   0  0  0  0  0  0  0  0  0  0  0  0
   23.9740   25.4510   11.6370 C   0  0  0  0  0  0  0  0  0  0  0  0
   25.3250   25.8000   11.5510 C   0  0  0  0  0  0  0  0  0  0  0  0
   29.4160   26.8750   15.6700 C   0  0  0  0  0  0  0  0  0  0  0  0
   30.4850   27.4960   16.3450 C   0  0  0  0  0  0  0  0  0  0  0  0
   30.6950   28.8670   16.2280 C   0  0  0  0  0  0  0  0  0  0  0  0
   29.8570   29.6230   15.4160 C   0  0  0  0  0  0  0  0  0  0  0  0
   28.7920   29.0140   14.7440 C   0  0  0  0  0  0  0  0  0  0  0  0
   28.5320   27.6370   14.8770 C   0  0  0  0  0  0  0  0  0  0  0  0
   29.3940   25.3930   15.6490 C   0  0  0  0  0  0  0  0  0  0  0  0
   28.8160   24.7190   16.4850 O   0  0  0  0  0  0  0  0  0  0  0  0
   30.0630   24.9420   14.5580 O   0  0  0  0  0  0  0  0  0  0  0  0
   29.7280   23.6090   14.1370 C   0  0  0  0  0  0  0  0  0  0  0  0
   28.4790   23.6240   13.2590 C   0  0  0  0  0  0  0  0  0  0  0  0
   27.5180   22.9460   11.0000 C   0  0  0  0  0  0  0  0  0  0  0  0
   28.7640   23.3130   11.7910 C   0  0  0  0  0  0  0  0  0  0  0  0
   21.7730   25.2120   12.8990 C   0  0  0  0  0  0  0  0  0  0  0  0
   21.1700   25.0920   11.7880 O   0  0  0  0  0  0  0  0  0  0  0  0
   21.2640   25.0430   14.0510 O   0  0  0  0  0  1  0  0  0  0  0  0
   23.3517   26.2110   14.9424 H   0  0  0  0  0  0  0  0  0  0  0  0
   23.4648   25.0589   10.7443 H   0  0  0  0  0  0  0  0  0  0  0  0
   25.8877   25.6930   10.6119 H   0  0  0  0  0  0  0  0  0  0  0  0
   31.1596   26.8924   16.9699 H   0  0  0  0  0  0  0  0  0  0  0  0
   31.5188   29.3493   16.7745 H   0  0  0  0  0  0  0  0  0  0  0  0
   30.0320   30.7030   15.3017 H   0  0  0  0  0  0  0  0  0  0  0  0
   28.1438   29.6242   14.0978 H   0  0  0  0  0  0  0  0  0  0  0  0
   30.5679   23.1882   13.5647 H   0  0  0  0  0  0  0  0  0  0  0  0
   29.5300   22.9938   15.0271 H   0  0  0  0  0  0  0  0  0  0  0  0
   27.7736   22.8727   13.6437 H   0  0  0  0  0  0  0  0  0  0  0  0
   28.0660   24.6427   13.3002 H   0  0  0  0  0  0  0  0  0  0  0  0
   26.7002   22.7051   11.6951 H   0  0  0  0  0  0  0  0  0  0  0  0
   27.2225   23.7953   10.3664 H   0  0  0  0  0  0  0  0  0  0  0  0
   27.7301   22.0722   10.3664 H   0  0  0  0  0  0  0  0  0  0  0  0
   29.4686   22.4696   11.7434 H   0  0  0  0  0  0  0  0  0  0  0  0
   29.1788   24.2263   11.3395 H   0  0  0  0  0  0  0  0  0  0  0  0
  2  1  1  0
  3  2  2  0
  4  2  1  0
  5  4  2  0
  6  5  1  0
  6  1  1  0
  7  6  2  0
  8  5  1  0
  9  8  2  0
 10  9  1  0
 11 10  2  0
 11  4  1  0
 13 12  2  0
 14 13  1  0
 15 14  2  0
 16 15  1  0
 17 12  1  0
 17  1  1  0
 17 16  2  0
 18 12  1  0
 19 18  2  0
 20 18  1  0
 21 20  1  0
 22 21  1  0
 24 23  1  0
 24 22  1  0
 25  9  1  0
 26 25  2  0
 27 25  1  0
  8 28  1  0
 10 29  1  0
 11 30  1  0
 13 31  1  0
 14 32  1  0
 15 33  1  0
 16 34  1  0
 21 35  1  0
 21 36  1  0
 22 37  1  0
 22 38  1  0
 23 39  1  0
 23 40  1  0
 23 41  1  0
 24 42  1  0
 24 43  1  0
M  CHG  1  27  -1
M  END
$$$$
=
     RDKit          3D

 18 18  0  0  0  0  0  0  0  0999 V2000
   22.2220   16.5410    6.5240 O   0  0  0  0  0  0  0  0  0  0  0  0
   21.2090   17.0040    6.0240 C   0  0  0  0  0  0  0  0  0  0  0  0
   21.0410   18.4120    5.5080 C   0  0  0  0  0  0  0  0  0  0  0  0
   19.5460   18.5020    5.2130 C   0  0  0  0  0  0  0  0  0  0  0  0
   19.1700   17.0580    4.8920 C   0  0  1  0  0  0  0  0  0  0  0  0
   20.0260   16.3160    5.8200 N   0  0  0  0  0  0  0  0  0  0  0  0
   17.6950   16.7730    5.1600 C   0  0  0  0  0  0  0  0  0  0  0  0
   19.3890   16.6530    3.3860 C   0  0  0  0  0  0  0  0  0  0  0  0
   19.5750   15.4120    3.2040 O   0  0  0  0  0  0  0  0  0  0  0  0
   19.3590   17.5950    2.5460 O   0  0  0  0  0  1  0  0  0  0  0  0
   21.3375   19.1486    6.2692 H   0  0  0  0  0  0  0  0  0  0  0  0
   21.6668   18.6258    4.6290 H   0  0  0  0  0  0  0  0  0  0  0  0
   18.9918   18.8690    6.0894 H   0  0  0  0  0  0  0  0  0  0  0  0
   19.3068   19.2026    4.3994 H   0  0  0  0  0  0  0  0  0  0  0  0
   19.7833   15.4151    6.2564 H   0  0  0  0  0  0  0  0  0  0  0  0
   17.5194   16.7391    6.2454 H   0  0  0  0  0  0  0  0  0  0  0  0
   17.0808   17.5691    4.7139 H   0  0  0  0  0  0  0  0  0  0  0  0
   17.4216   15.8054    4.7139 H   0  0  0  0  0  0  0  0  0  0  0  0
  2  1  2  0
  3  2  1  0
  4  3  1  0
  5  4  1  0
  6  5  1  0
  6  2  1  0
  7  5  1  0
  5  8  1  6
  9  8  2  0
 10  8  1  0
  3 11  1  0
  3 12  1  0
  4 13  1  0
  4 14  1  0
  6 15  1  0
  7 16  1  0
  7 17  1  0
  7 18  1  0
M  CHG  1  10  -1
M  END
$$$$
=
     RDKit          3D

 25 25  0  0  0  0  0  0  0  0999 V2000
   20.4400   16.8650    5.2660 C   0  0  0  0  0  0  0  0  0  0  0  0
   21.6610   17.5900    5.3800 C   0  0  0  0  0  0  0  0  0  0  0  0
   22.0910   18.7740    4.6020 C   0  0  0  0  0  0  0  0  0  0  0  0
   22.4580   17.0810    6.3290 N   0  0  0  0  0  0  0  0  0  0  0  0
   21.7930   15.9700    6.8120 O   0  0  0  0  0  0  0  0  0  0  0  0
   20.6030   15.8310    6.1670 C   0  0  0  0  0  0  0  0  0  0  0  0
   19.7900   14.6640    6.5530 C   0  0  0  0  0  0  0  0  0  0  0  0
   19.2860   17.1630    4.3440 C   0  0  1  0  0  0  0  0  0  0  0  0
   19.5300   16.4360    3.0020 C   0  0  0  0  0  0  0  0  0  0  0  0
   19.4640   15.1730    3.0270 O   0  0  0  0  0  0  0  0  0  0  0  0
   19.7410   17.2040    2.0160 O   0  0  0  0  0  1  0  0  0  0  0  0
   17.5770   17.8480    6.0970 C   0  0  0  0  0  0  0  0  0  0  0  0
   17.9250   16.8610    4.9890 C   0  0  0  0  0  0  0  0  0  0  0  0
   22.3835   19.5795    5.2917 H   0  0  0  0  0  0  0  0  0  0  0  0
   22.9487   18.5045    3.9681 H   0  0  0  0  0  0  0  0  0  0  0  0
   21.2603   19.1177    3.9681 H   0  0  0  0  0  0  0  0  0  0  0  0
   19.7430   14.5965    7.6499 H   0  0  0  0  0  0  0  0  0  0  0  0
   18.7731   14.7756    6.1486 H   0  0  0  0  0  0  0  0  0  0  0  0
   20.2470   13.7488    6.1486 H   0  0  0  0  0  0  0  0  0  0  0  0
   19.2389   18.2429    4.1398 H   0  0  0  0  0  0  0  0  0  0  0  0
   17.7440   17.3744    7.0757 H   0  0  0  0  0  0  0  0  0  0  0  0
   18.2150   18.7396    6.0075 H   0  0  0  0  0  0  0  0  0  0  0  0
   16.5209   18.1423    6.0075 H   0  0  0  0  0  0  0  0  0  0  0  0
   17.1470   16.9118    4.2131 H   0  0  0  0  0  0  0  0  0  0  0  0
   17.9809   15.8582    5.4376 H   0  0  0  0  0  0  0  0  0  0  0  0
  2  1  1  0
  3  2  1  0
  4  2  2  0
  5  4  1  0
  6  5  1  0
  6  1  2  0
  7  6  1  0
  8  1  1  0
  9  8  1  0
 10  9  2  0
 11  9  1  0
 13  8  1  0
 13 12  1  0
  3 14  1  0
  3 15  1  0
  3 16  1  0
  7 17  1  0
  7 18  1  0
  7 19  1  0
  8 20  1  6
 12 21  1  0
 12 22  1  0
 12 23  1  0
 13 24  1  0
 13 25  1  0
M  CHG  1  11  -1
M  END
$$$$
=
     RDKit          3D

 47 48  0  0  0  0  0  0  0  0999 V2000
   26.4250   26.3160   14.3210 N   0  0  0  0  0  0  0  0  0  0  0  0
   25.1230   25.9720   13.6340 C   0  0  2  0  0  0  0  0  0  0  0  0
   24.7120   24.5180   13.9410 C   0  0  0  0  0  0  0  0  0  0  0  0
   23.4970   24.2130   13.0790 C   0  0  0  0  0  0  0  0  0  0  0  0
   23.7760   25.0880   11.5550 S   0  0  0  0  0  6  0  0  0  0  0  0
   22.6680   25.9980   11.3480 O   0  0  0  0  0  0  0  0  0  0  0  0
   24.1930   24.1450   10.5380 O   0  0  0  0  0  0  0  0  0  0  0  0
   25.1890   26.0210   12.1070 C   0  0  0  0  0  0  0  0  0  0  0  0
   26.2760   27.2110   15.7900 S   0  0  0  0  0  6  0  0  0  0  0  0
   25.8820   26.2580   16.8100 O   0  0  0  0  0  0  0  0  0  0  0  0
   25.4640   28.3840   15.5520 O   0  0  0  0  0  0  0  0  0  0  0  0
   27.9340   27.7770   16.1320 C   0  0  0  0  0  0  0  0  0  0  0  0
   28.5460   27.3290   17.3150 C   0  0  0  0  0  0  0  0  0  0  0  0
   29.8490   27.7230   17.6360 C   0  0  0  0  0  0  0  0  0  0  0  0
   30.4970   27.2490   18.9030 C   0  0  0  0  0  0  0  0  0  0  0  0
   30.5190   28.6000   16.7810 C   0  0  0  0  0  0  0  0  0  0  0  0
   29.9070   29.0600   15.6120 C   0  0  0  0  0  0  0  0  0  0  0  0
   28.6090   28.6560   15.2630 C   0  0  0  0  0  0  0  0  0  0  0  0
   28.0050   29.1940   13.9970 C   0  0  0  0  0  0  0  0  0  0  0  0
   27.3220   25.1070   14.4540 C   0  0  0  0  0  0  0  0  0  0  0  0
   28.5620   25.2820   13.5830 C   0  0  0  0  0  0  0  0  0  0  0  0
   29.8240   25.3180   14.4380 C   0  0  0  0  0  0  0  0  0  0  0  0
   29.8690   24.1330   16.4620 O   0  0  0  0  0  1  0  0  0  0  0  0
   30.0990   24.0350   15.2220 C   0  0  0  0  0  0  0  0  0  0  0  0
   30.5010   23.0440   14.5540 O   0  0  0  0  0  0  0  0  0  0  0  0
   24.4189   26.7264   14.0149 H   0  0  0  0  0  0  0  0  0  0  0  0
   25.5347   23.8315   13.6922 H   0  0  0  0  0  0  0  0  0  0  0  0
   24.4802   24.3907   15.0087 H   0  0  0  0  0  0  0  0  0  0  0  0
   23.4168   23.1316   12.8940 H   0  0  0  0  0  0  0  0  0  0  0  0
   22.5597   24.5216   13.5650 H   0  0  0  0  0  0  0  0  0  0  0  0
   26.1209   25.5619   11.7453 H   0  0  0  0  0  0  0  0  0  0  0  0
   25.1778   27.0527   11.7256 H   0  0  0  0  0  0  0  0  0  0  0  0
   27.9952   26.6623   17.9948 H   0  0  0  0  0  0  0  0  0  0  0  0
   29.9484   27.6503   19.7678 H   0  0  0  0  0  0  0  0  0  0  0  0
   30.4787   26.1496   18.9352 H   0  0  0  0  0  0  0  0  0  0  0  0
   31.5392   27.5994   18.9352 H   0  0  0  0  0  0  0  0  0  0  0  0
   31.5378   28.9319   17.0298 H   0  0  0  0  0  0  0  0  0  0  0  0
   30.4526   29.7515   14.9531 H   0  0  0  0  0  0  0  0  0  0  0  0
   27.2050   29.9066   14.2464 H   0  0  0  0  0  0  0  0  0  0  0  0
   28.7813   29.7053   13.4088 H   0  0  0  0  0  0  0  0  0  0  0  0
   27.5865   28.3640   13.4088 H   0  0  0  0  0  0  0  0  0  0  0  0
   27.6274   24.9933   15.5046 H   0  0  0  0  0  0  0  0  0  0  0  0
   26.7734   24.2114   14.1271 H   0  0  0  0  0  0  0  0  0  0  0  0
   28.6285   24.4409   12.8772 H   0  0  0  0  0  0  0  0  0  0  0  0
   28.4783   26.2338   13.0379 H   0  0  0  0  0  0  0  0  0  0  0  0
   30.6819   25.5057   13.7755 H   0  0  0  0  0  0  0  0  0  0  0  0
   29.6724   26.1123   15.1837 H   0  0  0  0  0  0  0  0  0  0  0  0
  2  1  1  0
  3  2  1  0
  4  3  1  0
  5  4  1  0
  6  5  2  0
  7  5  2  0
  8  5  1  0
  8  2  1  0
  9  1  1  0
 10  9  2  0
 11  9  2  0
 12  9  1  0
 13 12  2  0
 14 13  1  0
 15 14  1  0
 16 14  2  0
 17 16  1  0
 18 17  2  0
 18 12  1  0
 19 18  1  0
 20  1  1  0
 21 20  1  0
 22 21  1  0
 24 22  1  0
 24 23  1  0
 25 24  2  0
  2 26  1  1
  3 27  1  0
  3 28  1  0
  4 29  1  0
  4 30  1  0
  8 31  1  0
  8 32  1  0
 13 33  1  0
 15 34  1  0
 15 35  1  0
 15 36  1  0
 16 37  1  0
 17 38  1  0
 19 39  1  0
 19 40  1  0
 19 41  1  0
 20 42  1  0
 20 43  1  0
 21 44  1  0
 21 45  1  0
 22 46  1  0
 22 47  1  0
M  CHG  1  23  -1
M  END
$$$$
=
     RDKit          3D

 45 47  0  0  0  0  0  0  0  0999 V2000
   27.6450   28.5150   14.6980 C   0  0  0  0  0  0  0  0  0  0  0  0
   28.9350   27.7560   14.3600 C   0  0  0  0  0  0  0  0  0  0  0  0
   29.5120   27.0290   15.5700 C   0  0  0  0  0  0  0  0  0  0  0  0
   29.9580   27.5750   16.7640 C   0  0  0  0  0  0  0  0  0  0  0  0
   30.4580   26.7090   17.7370 C   0  0  0  0  0  0  0  0  0  0  0  0
   30.5140   25.3240   17.5060 C   0  0  0  0  0  0  0  0  0  0  0  0
   30.0740   24.7810   16.2940 C   0  0  0  0  0  0  0  0  0  0  0  0
   29.5770   25.6400   15.3270 C   0  0  0  0  0  0  0  0  0  0  0  0
   29.0740   25.3730   13.9960 C   0  0  0  0  0  0  0  0  0  0  0  0
   28.6900   26.5930   13.3980 C   0  0  0  0  0  0  0  0  0  0  0  0
   28.1850   26.6360   12.1080 C   0  0  0  0  0  0  0  0  0  0  0  0
   28.0530   25.4320   11.4120 C   0  0  0  0  0  0  0  0  0  0  0  0
   28.4260   24.2150   12.0050 C   0  0  0  0  0  0  0  0  0  0  0  0
   28.9420   24.1790   13.3050 C   0  0  0  0  0  0  0  0  0  0  0  0
   27.0910   28.0830   15.9550 O   0  0  0  0  0  0  0  0  0  0  0  0
   25.3570   27.2910   14.8410 N   0  0  0  0  0  0  0  0  0  0  0  0
   26.2080   27.0560   15.8730 C   0  0  0  0  0  0  0  0  0  0  0  0
   26.1950   26.0890   16.6200 O   0  0  0  0  0  0  0  0  0  0  0  0
   24.5180   26.2250   12.8140 C   0  0  0  0  0  0  0  0  0  0  0  0
   24.4100   26.3010   14.3350 C   0  0  2  0  0  0  0  0  0  0  0  0
   23.0070   26.6540   14.8570 C   0  0  0  0  0  0  0  0  0  0  0  0
   22.6200   25.9620   16.1610 C   0  0  0  0  0  0  0  0  0  0  0  0
   22.8200   26.7710   17.4450 C   0  0  0  0  0  0  0  0  0  0  0  0
   22.3590   27.9470   17.3960 O   0  0  0  0  0  0  0  0  0  0  0  0
   23.4100   26.1790   18.3890 O   0  0  0  0  0  1  0  0  0  0  0  0
   27.8683   29.5905   14.7568 H   0  0  0  0  0  0  0  0  0  0  0  0
   26.9076   28.3102   13.9079 H   0  0  0  0  0  0  0  0  0  0  0  0
   29.5918   28.5395   13.9542 H   0  0  0  0  0  0  0  0  0  0  0  0
   29.9187   28.6603   16.9392 H   0  0  0  0  0  0  0  0  0  0  0  0
   30.8124   27.1150   18.6959 H   0  0  0  0  0  0  0  0  0  0  0  0
   30.9087   24.6585   18.2878 H   0  0  0  0  0  0  0  0  0  0  0  0
   30.1215   23.6971   16.1129 H   0  0  0  0  0  0  0  0  0  0  0  0
   27.8963   27.5913   11.6453 H   0  0  0  0  0  0  0  0  0  0  0  0
   27.6523   25.4373   10.3876 H   0  0  0  0  0  0  0  0  0  0  0  0
   28.3110   23.2781   11.4403 H   0  0  0  0  0  0  0  0  0  0  0  0
   29.2360   23.2254   13.7677 H   0  0  0  0  0  0  0  0  0  0  0  0
   25.3807   28.2172   14.3910 H   0  0  0  0  0  0  0  0  0  0  0  0
   25.3889   25.6121   12.5384 H   0  0  0  0  0  0  0  0  0  0  0  0
   23.6046   25.7695   12.4039 H   0  0  0  0  0  0  0  0  0  0  0  0
   24.6383   27.2386   12.4039 H   0  0  0  0  0  0  0  0  0  0  0  0
   24.6378   25.2891   14.7012 H   0  0  0  0  0  0  0  0  0  0  0  0
   22.9655   27.7410   15.0203 H   0  0  0  0  0  0  0  0  0  0  0  0
   22.2946   26.3037   14.0956 H   0  0  0  0  0  0  0  0  0  0  0  0
   21.5547   25.6958   16.0955 H   0  0  0  0  0  0  0  0  0  0  0  0
   23.2995   25.1014   16.2485 H   0  0  0  0  0  0  0  0  0  0  0  0
  2  1  1  0
  3  2  1  0
  4  3  2  0
  5  4  1  0
  6  5  2  0
  7  6  1  0
  8  7  2  0
  8  3  1  0
  9  8  1  0
 10  9  2  0
 10  2  1  0
 11 10  1  0
 12 11  2  0
 13 12  1  0
 14 13  2  0
 14  9  1  0
 15  1  1  0
 17 16  1  0
 17 15  1  0
 18 17  2  0
 20 19  1  0
 20 16  1  0
 21 20  1  0
 22 21  1  0
 23 22  1  0
 24 23  2  0
 25 23  1  0
  1 26  1  0
  1 27  1  0
  2 28  1  0
  4 29  1  0
  5 30  1  0
  6 31  1  0
  7 32  1  0
 11 33  1  0
 12 34  1  0
 13 35  1  0
 14 36  1  0
 16 37  1  0
 19 38  1  0
 19 39  1  0
 19 40  1  0
 20 41  1  1
 21 42  1  0
 21 43  1  0
 22 44  1  0
 22 45  1  0
M  CHG  1  25  -1
M  END
$$$$
=
     RDKit          3D

 40 43  0  0  0  0  0  0  0  0999 V2000
   14.5030   14.2970    3.8800 N   0  0  0  0  0  0  0  0  0  0  0  0
   14.8290   15.5830    4.3600 C   0  0  0  0  0  0  0  0  0  0  0  0
   14.2130   16.6290    4.4130 O   0  0  0  0  0  0  0  0  0  0  0  0
   16.2150   15.3960    4.8840 C   0  0  1  0  0  0  0  0  0  0  0  0
   16.7580   14.5540    3.7420 C   0  0  2  0  0  0  0  0  0  0  0  0
   15.6750   13.5260    3.7300 C   0  0  0  0  0  0  0  0  0  0  0  0
   15.8620   12.3310    3.5930 O   0  0  0  0  0  0  0  0  0  0  0  0
   18.2570   14.5560    4.0360 C   0  0  2  0  0  0  0  0  0  0  0  0
   18.4180   15.1510    5.4530 C   0  0  0  0  0  0  0  0  0  0  0  0
   17.3930   16.3040    5.2230 C   0  0  2  0  0  0  0  0  0  0  0  0
   17.1660   17.2000    6.4210 C   0  0  0  0  0  0  0  0  0  0  0  0
   18.0300   17.0260    4.0050 C   0  0  0  0  0  0  0  0  0  0  0  0
   18.6820   15.8340    3.3070 C   0  0  0  0  0  0  0  0  0  0  0  0
   19.3900   15.8990    2.3170 O   0  0  0  0  0  0  0  0  0  0  0  0
   19.0450   13.3190    3.7120 C   0  0  0  0  0  0  0  0  0  0  0  0
   10.5340   12.9160    3.0710 C   0  0  0  0  0  0  0  0  0  0  0  0
   10.7650   13.9790    3.9490 C   0  0  0  0  0  0  0  0  0  0  0  0
   12.0640   14.4340    4.2120 C   0  0  0  0  0  0  0  0  0  0  0  0
   13.1820   13.8410    3.6060 C   0  0  0  0  0  0  0  0  0  0  0  0
   12.9450   12.7770    2.7230 C   0  0  0  0  0  0  0  0  0  0  0  0
   11.6450   12.3230    2.4600 C   0  0  0  0  0  0  0  0  0  0  0  0
    8.9460   11.7780    1.7090 O   0  0  0  0  0  1  0  0  0  0  0  0
    9.1280   12.4210    2.7900 C   0  0  0  0  0  0  0  0  0  0  0  0
    8.2360   12.6890    3.6570 O   0  0  0  0  0  0  0  0  0  0  0  0
   15.9735   15.1969    5.9385 H   0  0  0  0  0  0  0  0  0  0  0  0
   16.8753   14.7077    2.6591 H   0  0  0  0  0  0  0  0  0  0  0  0
   18.1127   14.4559    6.2490 H   0  0  0  0  0  0  0  0  0  0  0  0
   19.4310   15.4218    5.7853 H   0  0  0  0  0  0  0  0  0  0  0  0
   17.3126   16.6212    7.3448 H   0  0  0  0  0  0  0  0  0  0  0  0
   17.8808   18.0357    6.3945 H   0  0  0  0  0  0  0  0  0  0  0  0
   16.1395   17.5945    6.3945 H   0  0  0  0  0  0  0  0  0  0  0  0
   17.2701   17.5058    3.3707 H   0  0  0  0  0  0  0  0  0  0  0  0
   18.7152   17.8484    4.2582 H   0  0  0  0  0  0  0  0  0  0  0  0
   19.3576   12.8284    4.6456 H   0  0  0  0  0  0  0  0  0  0  0  0
   18.4198   12.6288    3.1266 H   0  0  0  0  0  0  0  0  0  0  0  0
   19.9348   13.5939    3.1266 H   0  0  0  0  0  0  0  0  0  0  0  0
    9.9116   14.4671    4.4424 H   0  0  0  0  0  0  0  0  0  0  0  0
   12.2103   15.2733    4.9078 H   0  0  0  0  0  0  0  0  0  0  0  0
   13.7968   12.2889    2.2268 H   0  0  0  0  0  0  0  0  0  0  0  0
   11.4955   11.4865    1.7615 H   0  0  0  0  0  0  0  0  0  0  0  0
  2  1  1  0
  3  2  2  0
  4  2  1  0
  5  4  1  0
  6  1  1  0
  6  5  1  0
  7  6  2  0
  8  5  1  0
  9  8  1  0
 10  4  1  0
 10  9  1  0
 10 11  1  1
 12 10  1  0
 13  8  1  0
 13 12  1  0
 14 13  2  0
  8 15  1  1
 17 16  2  0
 18 17  1  0
 19 18  2  0
 19  1  1  0
 20 19  1  0
 21 16  1  0
 21 20  2  0
 23 22  1  0
 23 16  1  0
 24 23  2  0
  4 25  1  1
  5 26  1  6
  9 27  1  0
  9 28  1  0
 11 29  1  0
 11 30  1  0
 11 31  1  0
 12 32  1  0
 12 33  1  0
 15 34  1  0
 15 35  1  0
 15 36  1  0
 17 37  1  0
 18 38  1  0
 20 39  1  0
 21 40  1  0
M  CHG  1  22  -1
M  END
$$$$
=
     RDKit          3D

 34 37  0  0  0  0  0  0  0  0999 V2000
   26.9960   27.4230   13.9200 C   0  0  2  0  0  0  0  0  0  0  0  0
   26.1640   26.4930   14.8930 C   0  0  2  0  0  0  0  0  0  0  0  0
   26.8350   25.0860   14.9770 C   0  0  1  0  0  0  0  0  0  0  0  0
   27.0000   24.5620   13.5440 C   0  0  0  0  0  0  0  0  0  0  0  0
   27.7770   25.4110   12.7180 C   0  0  0  0  0  0  0  0  0  0  0  0
   28.2760   26.6690   13.4430 C   0  0  2  0  0  0  0  0  0  0  0  0
   29.0240   26.1830   14.6910 C   0  0  0  0  0  0  0  0  0  0  0  0
   28.2520   25.3290   15.5150 C   0  0  0  0  0  0  0  0  0  0  0  0
   28.7800   24.8110   16.6890 C   0  0  0  0  0  0  0  0  0  0  0  0
   30.0890   25.1510   17.0430 C   0  0  0  0  0  0  0  0  0  0  0  0
   30.8510   26.0050   16.2310 C   0  0  0  0  0  0  0  0  0  0  0  0
   30.3200   26.5280   15.0490 C   0  0  0  0  0  0  0  0  0  0  0  0
   28.0140   25.0840   11.3900 C   0  0  0  0  0  0  0  0  0  0  0  0
   27.4650   23.9030   10.8840 C   0  0  0  0  0  0  0  0  0  0  0  0
   26.6860   23.0670   11.6990 C   0  0  0  0  0  0  0  0  0  0  0  0
   26.4470   23.3950   13.0350 C   0  0  0  0  0  0  0  0  0  0  0  0
   27.0900   29.1200   15.5850 O   0  0  0  0  0  1  0  0  0  0  0  0
   27.4910   28.7910   14.4220 C   0  0  0  0  0  0  0  0  0  0  0  0
   28.2390   29.4650   13.6570 O   0  0  0  0  0  0  0  0  0  0  0  0
   24.6780   26.2190   14.5920 C   0  0  0  0  0  0  0  0  0  0  0  0
   24.2030   26.6660   13.5100 O   0  0  0  0  0  0  0  0  0  0  0  0
   24.0600   25.5500   15.4820 O   0  0  0  0  0  1  0  0  0  0  0  0
   26.2459   27.6446   13.1466 H   0  0  0  0  0  0  0  0  0  0  0  0
   26.1748   27.0922   15.8154 H   0  0  0  0  0  0  0  0  0  0  0  0
   26.2515   24.3884   15.5958 H   0  0  0  0  0  0  0  0  0  0  0  0
   28.9161   27.3044   12.8133 H   0  0  0  0  0  0  0  0  0  0  0  0
   28.1806   24.1462   17.3283 H   0  0  0  0  0  0  0  0  0  0  0  0
   30.5260   24.7451   17.9672 H   0  0  0  0  0  0  0  0  0  0  0  0
   31.8775   26.2656   16.5282 H   0  0  0  0  0  0  0  0  0  0  0  0
   30.9171   27.1997   14.4148 H   0  0  0  0  0  0  0  0  0  0  0  0
   28.6211   25.7407   10.7496 H   0  0  0  0  0  0  0  0  0  0  0  0
   27.6453   23.6253    9.8350 H   0  0  0  0  0  0  0  0  0  0  0  0
   26.2592   22.1435   11.2807 H   0  0  0  0  0  0  0  0  0  0  0  0
   25.8326   22.7414   13.6716 H   0  0  0  0  0  0  0  0  0  0  0  0
  2  1  1  0
  3  2  1  0
  4  3  1  0
  5  4  2  0
  6  1  1  0
  6  5  1  0
  7  6  1  0
  8  3  1  0
  8  7  2  0
  9  8  1  0
 10  9  2  0
 11 10  1  0
 12 11  2  0
 12  7  1  0
 13  5  1  0
 14 13  2  0
 15 14  1  0
 16 15  2  0
 16  4  1  0
 18 17  1  0
 18  1  1  0
 19 18  2  0
 20  2  1  0
 21 20  2  0
 22 20  1  0
  1 23  1  6
  2 24  1  1
  3 25  1  1
  6 26  1  6
  9 27  1  0
 10 28  1  0
 11 29  1  0
 12 30  1  0
 13 31  1  0
 14 32  1  0
 15 33  1  0
 16 34  1  0
M  CHG  2  17  -1  22  -1
M  END
$$$$
=
     RDKit          3D

 38 39  0  0  0  0  0  0  0  0999 V2000
   16.4720   15.7150    6.8580 O   0  0  0  0  0  0  0  0  0  0  0  0
   17.0160   16.0300    5.7990 C   0  0  0  0  0  0  0  0  0  0  0  0
   16.6350   15.6430    4.5310 N   0  0  0  0  0  0  0  0  0  0  0  0
   15.5460   14.8480    4.1390 C   0  0  0  0  0  0  0  0  0  0  0  0
   15.8280   13.7430    3.3330 C   0  0  0  0  0  0  0  0  0  0  0  0
   14.8060   12.8990    2.8970 C   0  0  0  0  0  0  0  0  0  0  0  0
   13.4730   13.1420    3.2570 C   0  0  0  0  0  0  0  0  0  0  0  0
   13.1780   14.2550    4.0690 C   0  0  0  0  0  0  0  0  0  0  0  0
   14.2210   15.0970    4.5000 C   0  0  0  0  0  0  0  0  0  0  0  0
   11.7670   14.5680    4.4860 C   0  0  0  0  0  0  0  0  0  0  0  0
   12.3970   12.2140    2.7700 C   0  0  0  0  0  0  0  0  0  0  0  0
   18.2750   16.8970    5.7950 C   0  0  0  0  0  0  0  0  0  0  0  0
   19.4200   16.0900    5.5190 O   0  0  0  0  0  0  0  0  0  0  0  0
   20.4700   16.8780    5.1250 C   0  0  0  0  0  0  0  0  0  0  0  0
   21.3770   17.2540    6.1270 C   0  0  0  0  0  0  0  0  0  0  0  0
   22.4450   18.0980    5.8300 C   0  0  0  0  0  0  0  0  0  0  0  0
   22.5990   18.5810    4.5350 C   0  0  0  0  0  0  0  0  0  0  0  0
   21.6810   18.2220    3.5440 C   0  0  0  0  0  0  0  0  0  0  0  0
   20.5950   17.3650    3.8160 C   0  0  0  0  0  0  0  0  0  0  0  0
   19.6380   17.0250    2.6910 C   0  0  0  0  0  0  0  0  0  0  0  0
   19.3200   17.9670    1.8970 O   0  0  0  0  0  0  0  0  0  0  0  0
   19.2360   15.8210    2.5820 O   0  0  0  0  0  1  0  0  0  0  0  0
   17.2327   15.9849    3.7649 H   0  0  0  0  0  0  0  0  0  0  0  0
   16.8674   13.5357    3.0386 H   0  0  0  0  0  0  0  0  0  0  0  0
   15.0490   12.0331    2.2636 H   0  0  0  0  0  0  0  0  0  0  0  0
   13.9874   15.9663    5.1323 H   0  0  0  0  0  0  0  0  0  0  0  0
   11.7037   14.5820    5.5841 H   0  0  0  0  0  0  0  0  0  0  0  0
   11.4772   15.5523    4.0894 H   0  0  0  0  0  0  0  0  0  0  0  0
   11.0882   13.7986    4.0894 H   0  0  0  0  0  0  0  0  0  0  0  0
   11.8797   11.7679    3.6322 H   0  0  0  0  0  0  0  0  0  0  0  0
   11.6751   12.7774    2.1606 H   0  0  0  0  0  0  0  0  0  0  0  0
   12.8482   11.4171    2.1606 H   0  0  0  0  0  0  0  0  0  0  0  0
   18.1808   17.6732    5.0213 H   0  0  0  0  0  0  0  0  0  0  0  0
   18.3934   17.3681    6.7820 H   0  0  0  0  0  0  0  0  0  0  0  0
   21.2442   16.8803    7.1530 H   0  0  0  0  0  0  0  0  0  0  0  0
   23.1619   18.3806    6.6150 H   0  0  0  0  0  0  0  0  0  0  0  0
   23.4418   19.2444    4.2910 H   0  0  0  0  0  0  0  0  0  0  0  0
   21.8091   18.6182    2.5259 H   0  0  0  0  0  0  0  0  0  0  0  0
  2  1  2  0
  3  2  1  0
  4  3  1  0
  5  4  2  0
  6  5  1  0
  7  6  2  0
  8  7  1  0
  9  8  2  0
  9  4  1  0
 10  8  1  0
 11  7  1  0
 12  2  1  0
 13 12  1  0
 14 13  1  0
 15 14  2  0
 16 15  1  0
 17 16  2  0
 18 17  1  0
 19 18  2  0
 19 14  1  0
 20 19  1  0
 21 20  2  0
 22 20  1  0
  3 23  1  0
  5 24  1  0
  6 25  1  0
  9 26  1  0
 10 27  1  0
 10 28  1  0
 10 29  1  0
 11 30  1  0
 11 31  1  0
 11 32  1  0
 12 33  1  0
 12 34  1  0
 15 35  1  0
 16 36  1  0
 17 37  1  0
 18 38  1  0
M  CHG  1  22  -1
M  END
$$$$
=
     RDKit          3D

 45 47  0  0  0  0  0  0  0  0999 V2000
    7.8330   10.5740    1.0600 C   0  0  1  0  0  0  0  0  0  0  0  0
    6.5880   11.0450    0.3030 C   0  0  0  0  0  0  0  0  0  0  0  0
    6.6450   12.4520   -0.2310 N   0  0  2  0  0  4  0  0  0  0  0  0
    7.6370   12.6470   -1.3330 C   0  0  0  0  0  0  0  0  0  0  0  0
    6.6940   13.5170    0.8650 C   0  0  0  0  0  0  0  0  0  0  0  0
    8.0970   13.7630    1.4410 C   0  0  0  0  0  0  0  0  0  0  0  0
    8.7580   12.6100    2.0790 N   0  0  0  0  0  0  0  0  0  0  0  0
    8.0260   11.3710    2.3560 C   0  0  0  0  0  0  0  0  0  0  0  0
    9.4280   13.0710    3.2330 C   0  0  0  0  0  0  0  0  0  0  0  0
   10.7680   13.1970    3.0650 N   0  0  0  0  0  0  0  0  0  0  0  0
   11.5420   13.5930    4.1090 C   0  0  0  0  0  0  0  0  0  0  0  0
   10.9940   13.8610    5.3580 C   0  0  0  0  0  0  0  0  0  0  0  0
    9.6200   13.7470    5.5270 C   0  0  0  0  0  0  0  0  0  0  0  0
    8.8050   13.3670    4.4520 C   0  0  0  0  0  0  0  0  0  0  0  0
   12.9890   13.7010    3.8270 C   0  0  0  0  0  0  0  0  0  0  0  0
   13.7530   14.8120    4.2330 C   0  0  0  0  0  0  0  0  0  0  0  0
   15.1220   14.8940    3.9610 C   0  0  0  0  0  0  0  0  0  0  0  0
   15.7600   13.8680    3.2710 C   0  0  0  0  0  0  0  0  0  0  0  0
   15.0290   12.7620    2.8490 C   0  0  0  0  0  0  0  0  0  0  0  0
   13.6600   12.6840    3.1220 C   0  0  0  0  0  0  0  0  0  0  0  0
    7.3240   13.2930    4.6730 C   0  0  0  0  0  0  0  0  0  0  0  0
    6.6450   14.3030    4.3280 O   0  0  0  0  0  0  0  0  0  0  0  0
    6.8580   12.2420    5.2230 O   0  0  0  0  0  1  0  0  0  0  0  0
    7.6610    9.1750    1.3350 O   0  0  0  0  0  0  0  0  0  0  0  0
    8.7358   10.7384    0.4534 H   0  0  0  0  0  0  0  0  0  0  0  0
    6.4324   10.3659   -0.5483 H   0  0  0  0  0  0  0  0  0  0  0  0
    5.7679   11.0342    1.0360 H   0  0  0  0  0  0  0  0  0  0  0  0
    5.7365   12.6003   -0.6932 H   0  0  0  0  0  0  0  0  0  0  0  0
    8.6301   12.8422   -0.9021 H   0  0  0  0  0  0  0  0  0  0  0  0
    7.6785   11.7398   -1.9537 H   0  0  0  0  0  0  0  0  0  0  0  0
    7.3321   13.5024   -1.9537 H   0  0  0  0  0  0  0  0  0  0  0  0
    6.3232   14.4630    0.4437 H   0  0  0  0  0  0  0  0  0  0  0  0
    6.0722   13.1471    1.6936 H   0  0  0  0  0  0  0  0  0  0  0  0
    8.7414   14.1038    0.6172 H   0  0  0  0  0  0  0  0  0  0  0  0
    7.9561   14.4995    2.2458 H   0  0  0  0  0  0  0  0  0  0  0  0
    7.0422   11.6168    2.7822 H   0  0  0  0  0  0  0  0  0  0  0  0
    8.6014   10.7641    3.0705 H   0  0  0  0  0  0  0  0  0  0  0  0
   11.6379   14.1585    6.1988 H   0  0  0  0  0  0  0  0  0  0  0  0
    9.1697   13.9558    6.5086 H   0  0  0  0  0  0  0  0  0  0  0  0
   13.2621   15.6332    4.7759 H   0  0  0  0  0  0  0  0  0  0  0  0
   15.6959   15.7716    4.2933 H   0  0  0  0  0  0  0  0  0  0  0  0
   16.8377   13.9310    3.0600 H   0  0  0  0  0  0  0  0  0  0  0  0
   15.5279   11.9493    2.3008 H   0  0  0  0  0  0  0  0  0  0  0  0
   13.0934   11.8064    2.7774 H   0  0  0  0  0  0  0  0  0  0  0  0
    7.6433    9.0309    2.3143 H   0  0  0  0  0  0  0  0  0  0  0  0
  2  1  1  0
  3  2  1  0
  4  3  1  0
  5  3  1  0
  6  5  1  0
  7  6  1  0
  8  1  1  0
  8  7  1  0
  9  7  1  0
 10  9  2  0
 11 10  1  0
 12 11  2  0
 13 12  1  0
 14  9  1  0
 14 13  2  0
 15 11  1  0
 16 15  2  0
 17 16  1  0
 18 17  2  0
 19 18  1  0
 20 19  2  0
 20 15  1  0
 21 14  1  0
 22 21  2  0
 23 21  1  0
 24  1  1  0
  1 25  1  6
  2 26  1  0
  2 27  1  0
  3 28  1  6
  4 29  1  0
  4 30  1  0
  4 31  1  0
  5 32  1  0
  5 33  1  0
  6 34  1  0
  6 35  1  0
  8 36  1  0
  8 37  1  0
 12 38  1  0
 13 39  1  0
 16 40  1  0
 17 41  1  0
 18 42  1  0
 19 43  1  0
 20 44  1  0
 24 45  1  0
M  CHG  2   3   1  23  -1
M  END
$$$$
=
     RDKit          3D

 39 40  0  0  0  0  0  0  0  0999 V2000
   19.7580   18.2750    4.5200 C   0  0  1  0  0  0  0  0  0  0  0  0
   20.5710   18.3240    3.2000 C   0  0  0  0  0  0  0  0  0  0  0  0
   19.7730   17.9620    2.0610 O   0  0  0  0  0  0  0  0  0  0  0  0
   19.1960   16.6510    2.1680 C   0  0  0  0  0  0  0  0  0  0  0  0
   19.2270   16.0480    3.5780 C   0  0  0  0  0  0  0  0  0  0  0  0
   18.8970   17.0750    4.5540 N   0  0  0  0  0  0  0  0  0  0  0  0
   17.7680   17.0540    5.3440 C   0  0  0  0  0  0  0  0  0  0  0  0
   17.4060   17.9740    6.0660 O   0  0  0  0  0  0  0  0  0  0  0  0
   20.6870   18.3030    5.7480 C   0  0  0  0  0  0  0  0  0  0  0  0
   21.9440   17.4530    5.5780 C   0  0  0  0  0  0  0  0  0  0  0  0
   21.3910   15.8110    7.2060 O   0  0  0  0  0  1  0  0  0  0  0  0
   21.7890   15.9970    6.0250 C   0  0  0  0  0  0  0  0  0  0  0  0
   22.0590   15.1510    5.1250 O   0  0  0  0  0  0  0  0  0  0  0  0
   17.0760   15.8890    5.2230 O   0  0  0  0  0  0  0  0  0  0  0  0
   15.6760   16.0740    5.0130 C   0  0  0  0  0  0  0  0  0  0  0  0
   15.1590   14.8750    4.2580 C   0  0  0  0  0  0  0  0  0  0  0  0
   16.0020   14.1420    3.4120 C   0  0  0  0  0  0  0  0  0  0  0  0
   15.5190   13.0240    2.7280 C   0  0  0  0  0  0  0  0  0  0  0  0
   14.1930   12.6250    2.8900 C   0  0  0  0  0  0  0  0  0  0  0  0
   13.3490   13.3400    3.7370 C   0  0  0  0  0  0  0  0  0  0  0  0
   13.8300   14.4580    4.4210 C   0  0  0  0  0  0  0  0  0  0  0  0
   19.1190   19.1697    4.5560 H   0  0  0  0  0  0  0  0  0  0  0  0
   20.9524   19.3456    3.0558 H   0  0  0  0  0  0  0  0  0  0  0  0
   21.3942   17.5990    3.2816 H   0  0  0  0  0  0  0  0  0  0  0  0
   18.1463   16.7116    1.8447 H   0  0  0  0  0  0  0  0  0  0  0  0
   19.8074   15.9909    1.5353 H   0  0  0  0  0  0  0  0  0  0  0  0
   18.4931   15.2312    3.6433 H   0  0  0  0  0  0  0  0  0  0  0  0
   20.2333   15.6555    3.7860 H   0  0  0  0  0  0  0  0  0  0  0  0
   20.9922   19.3439    5.9305 H   0  0  0  0  0  0  0  0  0  0  0  0
   20.1218   17.8810    6.5920 H   0  0  0  0  0  0  0  0  0  0  0  0
   22.2213   17.4583    4.5136 H   0  0  0  0  0  0  0  0  0  0  0  0
   22.7141   17.8992    6.2244 H   0  0  0  0  0  0  0  0  0  0  0  0
   15.1604   16.1570    5.9811 H   0  0  0  0  0  0  0  0  0  0  0  0
   15.4924   16.9957    4.4413 H   0  0  0  0  0  0  0  0  0  0  0  0
   17.0507   14.4490    3.2858 H   0  0  0  0  0  0  0  0  0  0  0  0
   16.1855   12.4578    2.0608 H   0  0  0  0  0  0  0  0  0  0  0  0
   13.8132   11.7457    2.3491 H   0  0  0  0  0  0  0  0  0  0  0  0
   12.3035   13.0236    3.8668 H   0  0  0  0  0  0  0  0  0  0  0  0
   13.1614   15.0161    5.0929 H   0  0  0  0  0  0  0  0  0  0  0  0
  2  1  1  0
  3  2  1  0
  4  3  1  0
  5  4  1  0
  6  5  1  0
  6  1  1  0
  7  6  1  0
  8  7  2  0
  9  1  1  0
 10  9  1  0
 12 11  1  0
 12 10  1  0
 13 12  2  0
 14  7  1  0
 15 14  1  0
 16 15  1  0
 17 16  2  0
 18 17  1  0
 19 18  2  0
 20 19  1  0
 21 20  2  0
 21 16  1  0
  1 22  1  1
  2 23  1  0
  2 24  1  0
  4 25  1  0
  4 26  1  0
  5 27  1  0
  5 28  1  0
  9 29  1  0
  9 30  1  0
 10 31  1  0
 10 32  1  0
 15 33  1  0
 15 34  1  0
 17 35  1  0
 18 36  1  0
 19 37  1  0
 20 38  1  0
 21 39  1  0
M  CHG  1  11  -1
M  END
$$$$
=
     RDKit          3D

 23 24  0  0  0  0  0  0  0  0999 V2000
   18.2340   15.2540    4.4400 N   0  0  0  0  0  0  0  0  0  0  0  0
   19.1180   15.0110    3.4380 N   0  0  0  0  0  0  0  0  0  0  0  0
   20.3370   15.3120    3.8740 N   0  0  0  0  0  0  0  0  0  0  0  0
   20.2260   15.7530    5.1670 C   0  0  0  0  0  0  0  0  0  0  0  0
   18.8990   15.7220    5.5400 C   0  0  0  0  0  0  0  0  0  0  0  0
   14.4980   12.4990    2.6500 C   0  0  0  0  0  0  0  0  0  0  0  0
   14.9930   13.6840    3.4270 C   0  0  0  0  0  0  0  0  0  0  0  0
   14.0890   14.6100    3.9610 C   0  0  0  0  0  0  0  0  0  0  0  0
   14.5510   15.7270    4.6560 C   0  0  0  0  0  0  0  0  0  0  0  0
   15.9210   15.9360    4.8170 C   0  0  0  0  0  0  0  0  0  0  0  0
   16.8410   15.0260    4.2760 C   0  0  0  0  0  0  0  0  0  0  0  0
   16.3710   13.9040    3.5770 C   0  0  0  0  0  0  0  0  0  0  0  0
   21.4090   16.2270    6.1070 C   0  0  0  0  0  0  0  0  0  0  0  0
   21.4110   15.7370    7.2830 O   0  0  0  0  0  0  0  0  0  0  0  0
   22.2520   17.0430    5.6270 O   0  0  0  0  0  1  0  0  0  0  0  0
   18.4689   16.0106    6.5104 H   0  0  0  0  0  0  0  0  0  0  0  0
   14.1702   11.7142    3.3475 H   0  0  0  0  0  0  0  0  0  0  0  0
   13.6518   12.8034    2.0165 H   0  0  0  0  0  0  0  0  0  0  0  0
   15.3093   12.1110    2.0165 H   0  0  0  0  0  0  0  0  0  0  0  0
   13.0076   14.4554    3.8315 H   0  0  0  0  0  0  0  0  0  0  0  0
   13.8332   16.4455    5.0786 H   0  0  0  0  0  0  0  0  0  0  0  0
   16.2805   16.8166    5.3696 H   0  0  0  0  0  0  0  0  0  0  0  0
   17.0879   13.1914    3.1432 H   0  0  0  0  0  0  0  0  0  0  0  0
  2  1  1  0
  3  2  2  0
  4  3  1  0
  5  4  2  0
  5  1  1  0
  7  6  1  0
  8  7  2  0
  9  8  1  0
 10  9  2  0
 11 10  1  0
 11  1  1  0
 12  7  1  0
 12 11  2  0
 13  4  1  0
 14 13  2  0
 15 13  1  0
  5 16  1  0
  6 17  1  0
  6 18  1  0
  6 19  1  0
  8 20  1  0
  9 21  1  0
 10 22  1  0
 12 23  1  0
M  CHG  1  15  -1
M  END
$$$$
=
     RDKit          3D

 23 24  0  0  0  0  0  0  0  0999 V2000
   16.9880   14.1950    3.7080 C   0  0  0  0  0  0  0  0  0  0  0  0
   17.1000   13.1160    2.8080 C   0  0  0  0  0  0  0  0  0  0  0  0
   15.9750   12.3910    2.4070 C   0  0  0  0  0  0  0  0  0  0  0  0
   14.7190   12.7360    2.8930 C   0  0  0  0  0  0  0  0  0  0  0  0
   14.5940   13.7970    3.7900 C   0  0  0  0  0  0  0  0  0  0  0  0
   15.7200   14.5280    4.2190 C   0  0  0  0  0  0  0  0  0  0  0  0
   20.2250   15.4980    5.0730 C   0  0  0  0  0  0  0  0  0  0  0  0
   20.0450   16.7400    3.9160 S   0  0  0  0  0  0  0  0  0  0  0  0
   18.5710   16.0820    3.3530 C   0  0  0  0  0  0  0  0  0  0  0  0
   18.2060   14.9360    4.0350 C   0  0  0  0  0  0  0  0  0  0  0  0
   19.1870   14.5930    5.0220 C   0  0  0  0  0  0  0  0  0  0  0  0
   21.3520   15.7440    7.1510 O   0  0  0  0  0  0  0  0  0  0  0  0
   21.3740   15.4980    5.9450 C   0  0  0  0  0  0  0  0  0  0  0  0
   15.5000   15.6300    5.2170 C   0  0  0  0  0  0  0  0  0  0  0  0
   15.6330   15.3410    6.4460 O   0  0  0  0  0  0  0  0  0  0  0  0
   15.1700   16.7610    4.7400 O   0  0  0  0  0  1  0  0  0  0  0  0
   18.0896   12.8402    2.4148 H   0  0  0  0  0  0  0  0  0  0  0  0
   16.0829   11.5486    1.7079 H   0  0  0  0  0  0  0  0  0  0  0  0
   13.8287   12.1754    2.5720 H   0  0  0  0  0  0  0  0  0  0  0  0
   13.5978   14.0682    4.1696 H   0  0  0  0  0  0  0  0  0  0  0  0
   17.9781   16.5220    2.5377 H   0  0  0  0  0  0  0  0  0  0  0  0
   19.1189   13.7051    5.6677 H   0  0  0  0  0  0  0  0  0  0  0  0
   22.3492   15.2587    5.4958 H   0  0  0  0  0  0  0  0  0  0  0  0
  2  1  2  0
  3  2  1  0
  4  3  2  0
  5  4  1  0
  6  5  2  0
  6  1  1  0
  8  7  1  0
  9  8  1  0
 10  9  2  0
 10  1  1  0
 11 10  1  0
 11  7  2  0
 13  7  1  0
 13 12  2  0
 14  6  1  0
 15 14  2  0
 16 14  1  0
  2 17  1  0
  3 18  1  0
  4 19  1  0
  5 20  1  0
  9 21  1  0
 11 22  1  0
 13 23  1  0
M  CHG  1  16  -1
M  END
$$$$
=
     RDKit          3D

 38 40  0  0  0  0  0  0  0  0999 V2000
   18.5070   14.3530    4.3390 C   0  0  2  0  0  0  0  0  0  0  0  0
   19.4040   14.1790    3.2250 O   0  0  0  0  0  0  0  0  0  0  0  0
   17.2010   15.0070    3.8590 C   0  0  0  0  0  0  0  0  0  0  0  0
   16.2300   13.9940    3.4540 N   0  0  0  0  0  0  0  0  0  0  0  0
   16.5250   12.8400    2.7810 C   0  0  0  0  0  0  0  0  0  0  0  0
   15.4500   12.1140    2.5600 N   0  0  0  0  0  0  0  0  0  0  0  0
   14.4180   12.8320    3.1140 C   0  0  0  0  0  0  0  0  0  0  0  0
   14.8760   14.0170    3.6840 C   0  0  0  0  0  0  0  0  0  0  0  0
   14.0280   14.9330    4.3190 C   0  0  0  0  0  0  0  0  0  0  0  0
   12.6660   14.6120    4.3630 C   0  0  0  0  0  0  0  0  0  0  0  0
   12.1810   13.4300    3.7990 C   0  0  0  0  0  0  0  0  0  0  0  0
   13.0480   12.5280    3.1700 C   0  0  0  0  0  0  0  0  0  0  0  0
   19.2360   15.1310    5.4440 C   0  0  0  0  0  0  0  0  0  0  0  0
   19.1050   16.5390    5.2300 O   0  0  0  0  0  0  0  0  0  0  0  0
   20.3300   17.1020    4.9850 C   0  0  0  0  0  0  0  0  0  0  0  0
   21.1850   17.2160    6.0900 C   0  0  0  0  0  0  0  0  0  0  0  0
   22.4260   17.8370    5.9640 C   0  0  0  0  0  0  0  0  0  0  0  0
   22.8080   18.3660    4.7360 C   0  0  0  0  0  0  0  0  0  0  0  0
   21.9470   18.2710    3.6400 C   0  0  0  0  0  0  0  0  0  0  0  0
   20.6930   17.6350    3.7390 C   0  0  0  0  0  0  0  0  0  0  0  0
   19.8210   17.5820    2.5070 C   0  0  0  0  0  0  0  0  0  0  0  0
   18.9670   18.5100    2.3330 O   0  0  0  0  0  0  0  0  0  0  0  0
   19.9720   16.5760    1.7440 O   0  0  0  0  0  1  0  0  0  0  0  0
   18.2118   13.3870    4.7745 H   0  0  0  0  0  0  0  0  0  0  0  0
   20.3179   14.0017    3.5618 H   0  0  0  0  0  0  0  0  0  0  0  0
   16.7761   15.6064    4.6777 H   0  0  0  0  0  0  0  0  0  0  0  0
   17.4254   15.6458    2.9920 H   0  0  0  0  0  0  0  0  0  0  0  0
   17.5384   12.5536    2.4630 H   0  0  0  0  0  0  0  0  0  0  0  0
   14.4145   15.8623    4.7629 H   0  0  0  0  0  0  0  0  0  0  0  0
   11.9643   15.3042    4.8513 H   0  0  0  0  0  0  0  0  0  0  0  0
   11.1055   13.2049    3.8495 H   0  0  0  0  0  0  0  0  0  0  0  0
   12.6627   11.5976    2.7275 H   0  0  0  0  0  0  0  0  0  0  0  0
   18.7996   14.8702    6.4195 H   0  0  0  0  0  0  0  0  0  0  0  0
   20.3030   14.8643    5.4246 H   0  0  0  0  0  0  0  0  0  0  0  0
   20.8737   16.8119    7.0646 H   0  0  0  0  0  0  0  0  0  0  0  0
   23.0995   17.9084    6.8308 H   0  0  0  0  0  0  0  0  0  0  0  0
   23.7858   18.8581    4.6279 H   0  0  0  0  0  0  0  0  0  0  0  0
   22.2551   18.7030    2.6764 H   0  0  0  0  0  0  0  0  0  0  0  0
  2  1  1  0
  3  1  1  0
  4  3  1  0
  5  4  1  0
  6  5  2  0
  7  6  1  0
  8  7  2  0
  8  4  1  0
  9  8  1  0
 10  9  2  0
 11 10  1  0
 12 11  2  0
 12  7  1  0
 13  1  1  0
 14 13  1  0
 15 14  1  0
 16 15  2  0
 17 16  1  0
 18 17  2  0
 19 18  1  0
 20 15  1  0
 20 19  2  0
 21 20  1  0
 22 21  2  0
 23 21  1  0
  1 24  1  1
  2 25  1  0
  3 26  1  0
  3 27  1  0
  5 28  1  0
  9 29  1  0
 10 30  1  0
 11 31  1  0
 12 32  1  0
 13 33  1  0
 13 34  1  0
 16 35  1  0
 17 36  1  0
 18 37  1  0
 19 38  1  0
M  CHG  1  23  -1
M  END
$$$$
=
     RDKit          3D

 38 40  0  0  0  0  0  0  0  0999 V2000
   25.6540   26.2600   13.3180 N   0  0  0  0  0  0  0  0  0  0  0  0
   26.2190   25.3160   12.4320 C   0  0  0  0  0  0  0  0  0  0  0  0
   25.4040   24.4350   11.8120 N   0  0  0  0  0  0  0  0  0  0  0  0
   25.9540   23.4990   11.0110 C   0  0  0  0  0  0  0  0  0  0  0  0
   27.3120   23.3950   10.7820 C   0  0  0  0  0  0  0  0  0  0  0  0
   28.1480   24.3050   11.4140 C   0  0  0  0  0  0  0  0  0  0  0  0
   27.6000   25.2840   12.2420 C   0  0  0  0  0  0  0  0  0  0  0  0
   28.4910   26.1180   12.8490 O   0  0  0  0  0  0  0  0  0  0  0  0
   27.8960   27.2870   13.3980 C   0  0  1  0  0  0  0  0  0  0  0  0
   26.4500   27.2080   13.9410 C   0  0  0  0  0  0  0  0  0  0  0  0
   26.0310   27.9880   14.7990 O   0  0  0  0  0  0  0  0  0  0  0  0
   28.8740   27.8020   14.4480 C   0  0  0  0  0  0  0  0  0  0  0  0
   29.0190   29.1790   14.6760 C   0  0  0  0  0  0  0  0  0  0  0  0
   29.9160   29.6470   15.6390 C   0  0  0  0  0  0  0  0  0  0  0  0
   30.6740   28.7460   16.3850 C   0  0  0  0  0  0  0  0  0  0  0  0
   30.5380   27.3770   16.1710 C   0  0  0  0  0  0  0  0  0  0  0  0
   29.6430   26.9070   15.2090 C   0  0  0  0  0  0  0  0  0  0  0  0
   24.2310   26.1460   13.6610 C   0  0  0  0  0  0  0  0  0  0  0  0
   24.0300   25.4500   15.0130 C   0  0  0  0  0  0  0  0  0  0  0  0
   22.8780   26.0400   15.8190 C   0  0  0  0  0  0  0  0  0  0  0  0
   22.6660   27.7880   17.3890 O   0  0  0  0  0  1  0  0  0  0  0  0
   23.4070   26.8410   17.0050 C   0  0  0  0  0  0  0  0  0  0  0  0
   24.5170   26.4430   17.4600 O   0  0  0  0  0  0  0  0  0  0  0  0
   25.2854   22.7807   10.5140 H   0  0  0  0  0  0  0  0  0  0  0  0
   27.7180   22.6160   10.1200 H   0  0  0  0  0  0  0  0  0  0  0  0
   29.2363   24.2542   11.2626 H   0  0  0  0  0  0  0  0  0  0  0  0
   27.7350   27.9764   12.5561 H   0  0  0  0  0  0  0  0  0  0  0  0
   28.4220   29.8950   14.0921 H   0  0  0  0  0  0  0  0  0  0  0  0
   30.0244   30.7284   15.8089 H   0  0  0  0  0  0  0  0  0  0  0  0
   31.3798   29.1166   17.1430 H   0  0  0  0  0  0  0  0  0  0  0  0
   31.1359   26.6660   16.7601 H   0  0  0  0  0  0  0  0  0  0  0  0
   29.5389   25.8243   15.0452 H   0  0  0  0  0  0  0  0  0  0  0  0
   23.7938   27.1542   13.7100 H   0  0  0  0  0  0  0  0  0  0  0  0
   23.7377   25.5411   12.8859 H   0  0  0  0  0  0  0  0  0  0  0  0
   23.8224   24.3850   14.8320 H   0  0  0  0  0  0  0  0  0  0  0  0
   24.9501   25.5942   15.5983 H   0  0  0  0  0  0  0  0  0  0  0  0
   22.2854   26.7024   15.1709 H   0  0  0  0  0  0  0  0  0  0  0  0
   22.2523   25.2181   16.1971 H   0  0  0  0  0  0  0  0  0  0  0  0
  2  1  1  0
  3  2  1  0
  4  3  2  0
  5  4  1  0
  6  5  2  0
  7  2  2  0
  7  6  1  0
  8  7  1  0
  9  8  1  0
 10  1  1  0
 10  9  1  0
 11 10  2  0
 12  9  1  0
 13 12  2  0
 14 13  1  0
 15 14  2  0
 16 15  1  0
 17 16  2  0
 17 12  1  0
 18  1  1  0
 19 18  1  0
 20 19  1  0
 22 20  1  0
 22 21  1  0
 23 22  2  0
  4 24  1  0
  5 25  1  0
  6 26  1  0
  9 27  1  6
 13 28  1  0
 14 29  1  0
 15 30  1  0
 16 31  1  0
 17 32  1  0
 18 33  1  0
 18 34  1  0
 19 35  1  0
 19 36  1  0
 20 37  1  0
 20 38  1  0
M  CHG  1  21  -1
M  END
$$$$
=
     RDKit          3D

 89 90  0  0  0  0  0  0  0  0999 V2000
    4.4480   14.5640    4.5020 C   0  0  1  0  0  0  0  0  0  0  0  0
    5.2230   15.6580    3.7140 C   0  0  0  0  0  0  0  0  0  0  0  0
    6.7230   15.4140    3.7930 C   0  0  0  0  0  0  0  0  0  0  0  0
    7.0990   14.0700    3.1400 C   0  0  1  0  0  0  0  0  0  0  0  0
    5.9880   13.1690    3.1310 O   0  0  0  0  0  0  0  0  0  0  0  0
    5.2190   13.1890    4.3360 C   0  0  2  0  0  0  0  0  0  0  0  0
    7.4700   14.2550    1.6490 C   0  0  0  0  0  0  0  0  0  0  0  0
    8.3620   13.1060    1.1880 C   0  0  0  0  0  0  0  0  0  0  0  0
    9.6610   13.0430    2.0190 C   0  0  1  0  0  0  0  0  0  0  0  0
    9.4720   13.7710    3.3710 C   0  0  1  0  0  0  0  0  0  0  0  0
    8.1740   13.4940    3.9010 O   0  0  0  0  0  0  0  0  0  0  0  0
   10.1230   11.5890    2.1050 C   0  0  0  0  0  0  0  0  0  0  0  0
    4.4890   15.0220    5.8810 O   0  0  0  0  0  0  0  0  0  0  0  0
    3.4180   14.6120    6.7180 C   0  0  0  0  0  0  0  0  0  0  0  0
    4.3550   11.9470    4.3650 C   0  0  0  0  0  0  0  0  0  0  0  0
    4.1040   11.1560    3.3050 C   0  0  0  0  0  0  0  0  0  0  0  0
    3.2490    9.9780    3.2860 C   0  0  0  0  0  0  0  0  0  0  0  0
    3.6570    8.7660    3.7100 C   0  0  0  0  0  0  0  0  0  0  0  0
    1.8310   10.1510    2.8030 C   0  0  0  0  0  0  0  0  0  0  0  0
    5.0130    8.2590    4.2200 C   0  0  0  0  0  0  0  0  0  0  0  0
    5.3880    8.6490    5.3600 O   0  0  0  0  0  0  0  0  0  0  0  0
    5.6250    7.5300    3.3840 O   0  0  0  0  0  1  0  0  0  0  0  0
    2.9800   14.5520    3.9790 C   0  0  0  0  0  0  0  0  0  0  0  0
    2.8350   14.8690    2.4810 C   0  0  0  0  0  0  0  0  0  0  0  0
    2.9170   13.2940    0.4740 C   0  0  0  0  0  0  0  0  0  0  0  0
    2.1370   13.7550    1.6950 C   0  0  0  0  0  0  0  0  0  0  0  0
   10.5520   13.5600    4.4550 C   0  0  0  0  0  0  0  0  0  0  0  0
   11.8230   14.3620    4.3320 C   0  0  0  0  0  0  0  0  0  0  0  0
   13.0520   13.9010    4.0180 C   0  0  0  0  0  0  0  0  0  0  0  0
   13.3530   12.4560    3.7050 C   0  0  0  0  0  0  0  0  0  0  0  0
   14.1650   14.8490    3.9480 C   0  0  0  0  0  0  0  0  0  0  0  0
   15.3930   14.6710    4.4690 C   0  0  0  0  0  0  0  0  0  0  0  0
   16.5210   15.6660    4.3700 C   0  0  1  0  0  0  0  0  0  0  0  0
   17.2460   15.8970    5.7260 C   0  0  2  0  0  0  0  0  0  0  0  0
   16.3550   15.5370    6.9240 C   0  0  0  0  0  0  0  0  0  0  0  0
   17.6940   17.3420    5.8850 C   0  0  0  0  0  0  0  0  0  0  0  0
   18.8680   17.8590    5.4830 C   0  0  0  0  0  0  0  0  0  0  0  0
   19.9610   17.1370    4.6900 C   0  0  0  0  0  0  0  0  0  0  0  0
   19.7290   16.9990    3.4540 O   0  0  0  0  0  0  0  0  0  0  0  0
   20.9700   16.8070    5.3720 O   0  0  0  0  0  1  0  0  0  0  0  0
   17.3910   15.1410    3.3660 O   0  0  0  0  0  0  0  0  0  0  0  0
    4.9082   15.6358    2.6602 H   0  0  0  0  0  0  0  0  0  0  0  0
    4.9996   16.6396    4.1574 H   0  0  0  0  0  0  0  0  0  0  0  0
    7.2477   16.2272    3.2702 H   0  0  0  0  0  0  0  0  0  0  0  0
    7.0178   15.3835    4.8523 H   0  0  0  0  0  0  0  0  0  0  0  0
    5.8627   13.1485    5.2270 H   0  0  0  0  0  0  0  0  0  0  0  0
    6.5515   14.2688    1.0438 H   0  0  0  0  0  0  0  0  0  0  0  0
    8.0113   15.2047    1.5262 H   0  0  0  0  0  0  0  0  0  0  0  0
    7.8155   12.1584    1.3033 H   0  0  0  0  0  0  0  0  0  0  0  0
    8.6293   13.2725    0.1340 H   0  0  0  0  0  0  0  0  0  0  0  0
   10.4824   13.5896    1.5326 H   0  0  0  0  0  0  0  0  0  0  0  0
    9.5872   14.8328    3.1075 H   0  0  0  0  0  0  0  0  0  0  0  0
   10.2162   11.2957    3.1611 H   0  0  0  0  0  0  0  0  0  0  0  0
    9.3867   10.9403    1.6079 H   0  0  0  0  0  0  0  0  0  0  0  0
   11.0987   11.4843    1.6079 H   0  0  0  0  0  0  0  0  0  0  0  0
    3.7124   14.7247    7.7719 H   0  0  0  0  0  0  0  0  0  0  0  0
    2.5348   15.2356    6.5153 H   0  0  0  0  0  0  0  0  0  0  0  0
    3.1770   13.5580    6.5153 H   0  0  0  0  0  0  0  0  0  0  0  0
    3.8970   11.6692    5.3258 H   0  0  0  0  0  0  0  0  0  0  0  0
    4.5941   11.4270    2.3583 H   0  0  0  0  0  0  0  0  0  0  0  0
    2.8717    7.9961    3.6862 H   0  0  0  0  0  0  0  0  0  0  0  0
    1.1565   10.2333    3.6680 H   0  0  0  0  0  0  0  0  0  0  0  0
    1.7598   11.0645    2.1943 H   0  0  0  0  0  0  0  0  0  0  0  0
    1.5423    9.2814    2.1943 H   0  0  0  0  0  0  0  0  0  0  0  0
    2.5583   13.5525    4.1612 H   0  0  0  0  0  0  0  0  0  0  0  0
    2.4480   15.3480    4.5206 H   0  0  0  0  0  0  0  0  0  0  0  0
    2.2481   15.7932    2.3741 H   0  0  0  0  0  0  0  0  0  0  0  0
    3.8494   14.9747    2.0688 H   0  0  0  0  0  0  0  0  0  0  0  0
    3.8221   12.7591    0.7976 H   0  0  0  0  0  0  0  0  0  0  0  0
    2.2896   12.6215   -0.1295 H   0  0  0  0  0  0  0  0  0  0  0  0
    3.2036   14.1679   -0.1295 H   0  0  0  0  0  0  0  0  0  0  0  0
    1.1563   14.1256    1.3621 H   0  0  0  0  0  0  0  0  0  0  0  0
    2.0493   12.8898    2.3686 H   0  0  0  0  0  0  0  0  0  0  0  0
   10.0981   13.8075    5.4259 H   0  0  0  0  0  0  0  0  0  0  0  0
   10.8673   12.5126    4.3386 H   0  0  0  0  0  0  0  0  0  0  0  0
   11.7392   15.4428    4.5189 H   0  0  0  0  0  0  0  0  0  0  0  0
   13.4700   11.8942    4.6435 H   0  0  0  0  0  0  0  0  0  0  0  0
   12.5249   12.0270    3.1217 H   0  0  0  0  0  0  0  0  0  0  0  0
   14.2835   12.3933    3.1217 H   0  0  0  0  0  0  0  0  0  0  0  0
   13.9803   15.7961    3.4198 H   0  0  0  0  0  0  0  0  0  0  0  0
   15.5878   13.7310    5.0062 H   0  0  0  0  0  0  0  0  0  0  0  0
   16.1490   16.6661    4.1027 H   0  0  0  0  0  0  0  0  0  0  0  0
   18.1242   15.2348    5.7114 H   0  0  0  0  0  0  0  0  0  0  0  0
   16.8924   15.7541    7.8589 H   0  0  0  0  0  0  0  0  0  0  0  0
   15.4308   16.1323    6.8856 H   0  0  0  0  0  0  0  0  0  0  0  0
   16.1037   14.4668    6.8856 H   0  0  0  0  0  0  0  0  0  0  0  0
   16.9898   18.0298    6.3760 H   0  0  0  0  0  0  0  0  0  0  0  0
   19.0634   18.9078    5.7511 H   0  0  0  0  0  0  0  0  0  0  0  0
   18.1537   14.6808    3.7980 H   0  0  0  0  0  0  0  0  0  0  0  0
  2  1  1  0
  3  2  1  0
  4  3  1  0
  4  5  1  6
  6  1  1  0
  6  5  1  0
  7  4  1  0
  8  7  1  0
  9  8  1  0
 10  9  1  0
 11 10  1  0
 11  4  1  0
 12  9  1  0
  1 13  1  1
 14 13  1  0
 15  6  1  0
 16 15  2  0
 17 16  1  0
 18 17  2  0
 19 17  1  0
 20 18  1  0
 21 20  2  0
 22 20  1  0
 23  1  1  0
 24 23  1  0
 26 25  1  0
 26 24  1  0
 27 10  1  0
 28 27  1  0
 29 28  2  0
 30 29  1  0
 31 29  1  0
 32 31  2  0
 33 32  1  0
 34 33  1  0
 35 34  1  0
 36 34  1  0
 37 36  2  0
 38 37  1  0
 39 38  2  0
 40 38  1  0
 41 33  1  0
  2 42  1  0
  2 43  1  0
  3 44  1  0
  3 45  1  0
  6 46  1  1
  7 47  1  0
  7 48  1  0
  8 49  1  0
  8 50  1  0
  9 51  1  6
 10 52  1  6
 12 53  1  0
 12 54  1  0
 12 55  1  0
 14 56  1  0
 14 57  1  0
 14 58  1  0
 15 59  1  0
 16 60  1  0
 18 61  1  0
 19 62  1  0
 19 63  1  0
 19 64  1  0
 23 65  1  0
 23 66  1  0
 24 67  1  0
 24 68  1  0
 25 69  1  0
 25 70  1  0
 25 71  1  0
 26 72  1  0
 26 73  1  0
 27 74  1  0
 27 75  1  0
 28 76  1  0
 30 77  1  0
 30 78  1  0
 30 79  1  0
 31 80  1  0
 32 81  1  0
 33 82  1  6
 34 83  1  6
 35 84  1  0
 35 85  1  0
 35 86  1  0
 36 87  1  0
 37 88  1  0
 41 89  1  0
M  CHG  2  22  -1  40  -1
M  END
$$$$
=
     RDKit          3D

 20 20  0  0  0  0  0  0  0  0999 V2000
   19.1630   16.9520    5.0520 C   0  0  0  0  0  0  0  0  0  0  0  0
   17.8600   16.7940    4.5280 C   0  0  0  0  0  0  0  0  0  0  0  0
   17.3330   15.5270    4.2660 C   0  0  0  0  0  0  0  0  0  0  0  0
   18.1110   14.3940    4.5280 C   0  0  0  0  0  0  0  0  0  0  0  0
   19.3950   14.5210    5.0590 C   0  0  0  0  0  0  0  0  0  0  0  0
   19.9080   15.7990    5.3200 C   0  0  0  0  0  0  0  0  0  0  0  0
   20.6890   18.6650    4.5270 O   0  0  0  0  0  1  0  0  0  0  0  0
   19.7170   18.3270    5.2630 C   0  0  0  0  0  0  0  0  0  0  0  0
   19.1340   19.0440    6.1310 O   0  0  0  0  0  0  0  0  0  0  0  0
   21.2180   15.8610    5.9540 N   0  0  0  0  0  4  0  0  0  0  0  0
   21.2500   15.7370    7.1890 O   0  0  0  0  0  0  0  0  0  0  0  0
   22.2050   15.8260    5.2010 O   0  0  0  0  0  1  0  0  0  0  0  0
   16.0960   15.2520    3.7560 O   0  0  0  0  0  0  0  0  0  0  0  0
   14.9750   15.4450    4.6030 C   0  0  0  0  0  0  0  0  0  0  0  0
   14.0870   14.4510    4.3550 F   0  0  0  0  0  0  0  0  0  0  0  0
   14.3580   16.6160    4.3490 F   0  0  0  0  0  0  0  0  0  0  0  0
   15.3180   15.3680    5.9050 F   0  0  0  0  0  0  0  0  0  0  0  0
   17.2492   17.6855    4.3226 H   0  0  0  0  0  0  0  0  0  0  0  0
   17.7066   13.3938    4.3134 H   0  0  0  0  0  0  0  0  0  0  0  0
   19.9991   13.6265    5.2708 H   0  0  0  0  0  0  0  0  0  0  0  0
  2  1  2  0
  3  2  1  0
  4  3  2  0
  5  4  1  0
  6  5  2  0
  6  1  1  0
  8  7  1  0
  8  1  1  0
  9  8  2  0
 10  6  1  0
 11 10  2  0
 12 10  1  0
 13  3  1  0
 14 13  1  0
 15 14  1  0
 16 14  1  0
 17 14  1  0
  2 18  1  0
  4 19  1  0
  5 20  1  0
M  CHG  3   7  -1  10   1  12  -1
M  END
$$$$
=
     RDKit          3D

 45 46  0  0  0  0  0  0  0  0999 V2000
   16.2320   13.7880    3.3160 C   0  0  0  0  0  0  0  0  0  0  0  0
   17.6100   13.5420    3.3400 C   0  0  0  0  0  0  0  0  0  0  0  0
   18.4540   14.3170    4.1410 C   0  0  0  0  0  0  0  0  0  0  0  0
   17.9400   15.3520    4.9370 C   0  0  0  0  0  0  0  0  0  0  0  0
   16.5590   15.5870    4.9140 C   0  0  0  0  0  0  0  0  0  0  0  0
   15.7150   14.8130    4.1140 C   0  0  0  0  0  0  0  0  0  0  0  0
   18.8740   16.1760    5.8100 C   0  0  1  0  0  0  0  0  0  0  0  0
   20.3450   15.7440    5.6510 C   0  0  0  0  0  0  0  0  0  0  0  0
   21.2920   16.7990    6.2170 C   0  0  0  0  0  0  0  0  0  0  0  0
   21.1650   18.1450    5.4920 C   0  0  2  0  0  0  0  0  0  0  0  0
   19.7970   18.3540    4.8280 C   0  0  0  0  0  0  0  0  0  0  0  0
   18.6690   17.6940    5.6180 C   0  0  0  0  0  0  0  0  0  0  0  0
   22.2040   18.3660    4.3740 C   0  0  0  0  0  0  0  0  0  0  0  0
   23.3880   18.5370    4.7860 O   0  0  0  0  0  0  0  0  0  0  0  0
   21.7630   18.3600    3.1910 O   0  0  0  0  0  1  0  0  0  0  0  0
   15.3150   12.9450    2.4660 C   0  0  0  0  0  0  0  0  0  0  0  0
   14.2010   12.3090    3.3020 C   0  0  0  0  0  0  0  0  0  0  0  0
   12.8070   12.5300    2.7050 C   0  0  0  0  0  0  0  0  0  0  0  0
   12.2740   13.7000    4.9240 C   0  0  0  0  0  0  0  0  0  0  0  0
   11.9510   13.5610    3.4470 C   0  0  0  0  0  0  0  0  0  0  0  0
   18.0315   12.7336    2.7245 H   0  0  0  0  0  0  0  0  0  0  0  0
   19.5349   14.1128    4.1473 H   0  0  0  0  0  0  0  0  0  0  0  0
   16.1342   16.3907    5.5334 H   0  0  0  0  0  0  0  0  0  0  0  0
   14.6331   15.0119    4.1119 H   0  0  0  0  0  0  0  0  0  0  0  0
   18.6034   15.9657    6.8552 H   0  0  0  0  0  0  0  0  0  0  0  0
   20.5011   14.7964    6.1873 H   0  0  0  0  0  0  0  0  0  0  0  0
   20.5592   15.6214    4.5790 H   0  0  0  0  0  0  0  0  0  0  0  0
   21.0600   16.9476    7.2819 H   0  0  0  0  0  0  0  0  0  0  0  0
   22.3212   16.4371    6.0765 H   0  0  0  0  0  0  0  0  0  0  0  0
   21.3262   18.8606    6.3117 H   0  0  0  0  0  0  0  0  0  0  0  0
   19.5973   19.4335    4.7589 H   0  0  0  0  0  0  0  0  0  0  0  0
   19.8295   17.8899    3.8312 H   0  0  0  0  0  0  0  0  0  0  0  0
   17.7235   17.8545    5.0793 H   0  0  0  0  0  0  0  0  0  0  0  0
   18.6556   18.1529    6.6176 H   0  0  0  0  0  0  0  0  0  0  0  0
   14.8617   13.5804    1.6909 H   0  0  0  0  0  0  0  0  0  0  0  0
   15.9096   12.1381    2.0129 H   0  0  0  0  0  0  0  0  0  0  0  0
   14.3866   11.2268    3.3689 H   0  0  0  0  0  0  0  0  0  0  0  0
   14.2161   12.7889    4.2917 H   0  0  0  0  0  0  0  0  0  0  0  0
   12.9288   12.8695    1.6658 H   0  0  0  0  0  0  0  0  0  0  0  0
   12.2775   11.5692    2.7862 H   0  0  0  0  0  0  0  0  0  0  0  0
   11.4253   13.3348    5.5209 H   0  0  0  0  0  0  0  0  0  0  0  0
   13.1704   13.1080    5.1606 H   0  0  0  0  0  0  0  0  0  0  0  0
   12.4603   14.7580    5.1606 H   0  0  0  0  0  0  0  0  0  0  0  0
   10.8961   13.2641    3.3523 H   0  0  0  0  0  0  0  0  0  0  0  0
   12.1657   14.5365    2.9862 H   0  0  0  0  0  0  0  0  0  0  0  0
  2  1  2  0
  3  2  1  0
  4  3  2  0
  5  4  1  0
  6  1  1  0
  6  5  2  0
  7  4  1  0
  8  7  1  0
  9  8  1  0
 10  9  1  0
 11 10  1  0
 12  7  1  0
 12 11  1  0
 13 10  1  0
 14 13  2  0
 15 13  1  0
 16  1  1  0
 17 16  1  0
 18 17  1  0
 20 19  1  0
 20 18  1  0
  2 21  1  0
  3 22  1  0
  5 23  1  0
  6 24  1  0
  7 25  1  1
  8 26  1  0
  8 27  1  0
  9 28  1  0
  9 29  1  0
 10 30  1  1
 11 31  1  0
 11 32  1  0
 12 33  1  0
 12 34  1  0
 16 35  1  0
 16 36  1  0
 17 37  1  0
 17 38  1  0
 18 39  1  0
 18 40  1  0
 19 41  1  0
 19 42  1  0
 19 43  1  0
 20 44  1  0
 20 45  1  0
M  CHG  1  15  -1
M  END
$$$$
=
     RDKit          3D

 30 30  0  0  0  0  0  0  0  0999 V2000
   16.9740   16.5130    5.9470 C   0  0  0  0  0  0  0  0  0  0  0  0
   17.4710   16.2770    4.5270 C   0  0  0  0  0  0  0  0  0  0  0  0
   18.9560   16.2990    4.5240 N   0  0  0  0  0  0  0  0  0  0  0  0
   19.4210   15.0980    4.0120 C   0  0  0  0  0  0  0  0  0  0  0  0
   18.3970   14.2750    3.7660 C   0  0  0  0  0  0  0  0  0  0  0  0
   17.1830   14.8810    4.0860 N   0  0  0  0  0  0  0  0  0  0  0  0
   19.6320   17.5910    4.3610 C   0  0  0  0  0  0  0  0  0  0  0  0
   20.4390   17.9460    5.5980 C   0  0  0  0  0  0  0  0  0  0  0  0
   21.8320   17.3250    5.5800 C   0  0  0  0  0  0  0  0  0  0  0  0
   22.1620   16.6190    6.5730 O   0  0  0  0  0  0  0  0  0  0  0  0
   22.5110   17.5950    4.5440 O   0  0  0  0  0  1  0  0  0  0  0  0
   15.9910   14.6460    3.2480 C   0  0  0  0  0  0  0  0  0  0  0  0
   14.9080   13.8790    3.9800 C   0  0  0  0  0  0  0  0  0  0  0  0
   14.7170   12.4740    3.4170 C   0  0  0  0  0  0  0  0  0  0  0  0
   13.7450   11.8370    3.9240 O   0  0  0  0  0  0  0  0  0  0  0  0
   15.5140   12.1010    2.5140 O   0  0  0  0  0  1  0  0  0  0  0  0
   17.7279   16.1550    6.6636 H   0  0  0  0  0  0  0  0  0  0  0  0
   16.8028   17.5885    6.1016 H   0  0  0  0  0  0  0  0  0  0  0  0
   16.0323   15.9659    6.1016 H   0  0  0  0  0  0  0  0  0  0  0  0
   16.9926   17.0395    3.8949 H   0  0  0  0  0  0  0  0  0  0  0  0
   20.4794   14.8570    3.8339 H   0  0  0  0  0  0  0  0  0  0  0  0
   18.4986   13.2559    3.3647 H   0  0  0  0  0  0  0  0  0  0  0  0
   20.3077   17.5361    3.4948 H   0  0  0  0  0  0  0  0  0  0  0  0
   18.8685   18.3678    4.2072 H   0  0  0  0  0  0  0  0  0  0  0  0
   20.5404   19.0400    5.6520 H   0  0  0  0  0  0  0  0  0  0  0  0
   19.9049   17.5476    6.4732 H   0  0  0  0  0  0  0  0  0  0  0  0
   15.5836   15.6183    2.9339 H   0  0  0  0  0  0  0  0  0  0  0  0
   16.3039   14.0402    2.3848 H   0  0  0  0  0  0  0  0  0  0  0  0
   15.1851   13.8007    5.0416 H   0  0  0  0  0  0  0  0  0  0  0  0
   13.9619   14.4256    3.8528 H   0  0  0  0  0  0  0  0  0  0  0  0
  2  1  1  0
  3  2  1  0
  4  3  1  0
  5  4  2  0
  6  5  1  0
  6  2  1  0
  7  3  1  0
  8  7  1  0
  9  8  1  0
 10  9  2  0
 11  9  1  0
 12  6  1  0
 13 12  1  0
 14 13  1  0
 15 14  2  0
 16 14  1  0
  1 17  1  0
  1 18  1  0
  1 19  1  0
  2 20  1  0
  4 21  1  0
  5 22  1  0
  7 23  1  0
  7 24  1  0
  8 25  1  0
  8 26  1  0
 12 27  1  0
 12 28  1  0
 13 29  1  0
 13 30  1  0
M  CHG  2  11  -1  16  -1
M  END
$$$$
=
     RDKit          3D

 27 26  0  0  0  0  0  0  0  0999 V2000
   18.8910   16.4300    5.2470 N   0  0  0  0  0  0  0  0  0  0  0  0
   19.6000   17.8830    4.7710 S   0  0  0  0  0  6  0  0  0  0  0  0
   19.2690   18.0930    3.3770 O   0  0  0  0  0  0  0  0  0  0  0  0
   19.3480   18.9070    5.7590 O   0  0  0  0  0  0  0  0  0  0  0  0
   22.2430   18.6610    4.5870 C   0  0  0  0  0  0  0  0  0  0  0  0
   21.3390   17.4770    4.8530 C   0  0  0  0  0  0  0  0  0  0  0  0
   17.7930   15.8800    4.3370 C   0  0  1  0  0  0  0  0  0  0  0  0
   18.3950   14.6010    3.6530 C   0  0  0  0  0  0  0  0  0  0  0  0
   19.6350   14.6270    3.4260 O   0  0  0  0  0  0  0  0  0  0  0  0
   17.5270   13.7060    3.4020 O   0  0  0  0  0  1  0  0  0  0  0  0
   16.5820   15.4770    5.2080 C   0  0  0  0  0  0  0  0  0  0  0  0
   15.2730   16.0790    4.6830 C   0  0  0  0  0  0  0  0  0  0  0  0
   16.7680   15.9140    6.6670 C   0  0  0  0  0  0  0  0  0  0  0  0
   19.6361   15.7211    5.3029 H   0  0  0  0  0  0  0  0  0  0  0  0
   22.5727   19.0928    5.5435 H   0  0  0  0  0  0  0  0  0  0  0  0
   23.1206   18.3304    4.0121 H   0  0  0  0  0  0  0  0  0  0  0  0
   21.6929   19.4205    4.0121 H   0  0  0  0  0  0  0  0  0  0  0  0
   21.5597   17.0880    5.8579 H   0  0  0  0  0  0  0  0  0  0  0  0
   21.5373   16.7327    4.0677 H   0  0  0  0  0  0  0  0  0  0  0  0
   17.4649   16.6182    3.5904 H   0  0  0  0  0  0  0  0  0  0  0  0
   16.5220   14.3799    5.1556 H   0  0  0  0  0  0  0  0  0  0  0  0
   14.6374   16.3713    5.5319 H   0  0  0  0  0  0  0  0  0  0  0  0
   15.4966   16.9648    4.0703 H   0  0  0  0  0  0  0  0  0  0  0  0
   14.7460   15.3328    4.0703 H   0  0  0  0  0  0  0  0  0  0  0  0
   16.4262   15.1110    7.3367 H   0  0  0  0  0  0  0  0  0  0  0  0
   17.8320   16.1204    6.8552 H   0  0  0  0  0  0  0  0  0  0  0  0
   16.1792   16.8239    6.8552 H   0  0  0  0  0  0  0  0  0  0  0  0
  2  1  1  0
  3  2  2  0
  4  2  2  0
  6  2  1  0
  6  5  1  0
  7  1  1  0
  8  7  1  0
  9  8  2  0
 10  8  1  0
 11  7  1  0
 12 11  1  0
 13 11  1  0
  1 14  1  0
  5 15  1  0
  5 16  1  0
  5 17  1  0
  6 18  1  0
  6 19  1  0
  7 20  1  6
 11 21  1  0
 12 22  1  0
 12 23  1  0
 12 24  1  0
 13 25  1  0
 13 26  1  0
 13 27  1  0
M  CHG  1  10  -1
M  END
$$$$
=
     RDKit          3D

 26 26  0  0  0  0  0  0  0  0999 V2000
   19.7410   17.1900    4.5140 C   0  0  0  0  0  0  0  0  0  0  0  0
   18.3560   16.7190    4.8160 C   0  0  0  0  0  0  0  0  0  0  0  0
   17.4600   16.9870    5.8310 C   0  0  0  0  0  0  0  0  0  0  0  0
   16.3050   16.2150    5.5620 C   0  0  0  0  0  0  0  0  0  0  0  0
   16.5670   15.5170    4.4040 C   0  0  0  0  0  0  0  0  0  0  0  0
   17.8150   15.8150    3.9460 O   0  0  0  0  0  0  0  0  0  0  0  0
   15.7930   14.5540    3.6000 C   0  0  0  0  0  0  0  0  0  0  0  0
   20.6130   17.3430    5.7670 C   0  0  1  0  0  0  0  0  0  0  0  0
   21.2200   15.9650    6.0750 C   0  0  0  0  0  0  0  0  0  0  0  0
   21.6740   15.3480    5.0690 O   0  0  0  0  0  0  0  0  0  0  0  0
   21.1920   15.6000    7.2850 O   0  0  0  0  0  1  0  0  0  0  0  0
   21.9560   18.6630    4.0480 C   0  0  0  0  0  0  0  0  0  0  0  0
   21.7370   18.3640    5.5260 C   0  0  0  0  0  0  0  0  0  0  0  0
   20.2191   16.4623    3.8418 H   0  0  0  0  0  0  0  0  0  0  0  0
   19.6550   18.1844    4.0517 H   0  0  0  0  0  0  0  0  0  0  0  0
   17.6136   17.6671    6.6818 H   0  0  0  0  0  0  0  0  0  0  0  0
   15.3817   16.1794    6.1589 H   0  0  0  0  0  0  0  0  0  0  0  0
   15.2461   13.8736    4.2693 H   0  0  0  0  0  0  0  0  0  0  0  0
   15.0776   15.0976    2.9654 H   0  0  0  0  0  0  0  0  0  0  0  0
   16.4777   13.9722    2.9654 H   0  0  0  0  0  0  0  0  0  0  0  0
   20.0053   17.7051    6.6094 H   0  0  0  0  0  0  0  0  0  0  0  0
   22.6031   19.5465    3.9446 H   0  0  0  0  0  0  0  0  0  0  0  0
   22.4361   17.7985    3.5662 H   0  0  0  0  0  0  0  0  0  0  0  0
   20.9869   18.8599    3.5662 H   0  0  0  0  0  0  0  0  0  0  0  0
   21.4764   19.3013    6.0394 H   0  0  0  0  0  0  0  0  0  0  0  0
   22.6686   17.9297    5.9177 H   0  0  0  0  0  0  0  0  0  0  0  0
  2  1  1  0
  3  2  2  0
  4  3  1  0
  5  4  2  0
  6  5  1  0
  6  2  1  0
  7  5  1  0
  8  1  1  0
  9  8  1  0
 10  9  2  0
 11  9  1  0
 13  8  1  0
 13 12  1  0
  1 14  1  0
  1 15  1  0
  3 16  1  0
  4 17  1  0
  7 18  1  0
  7 19  1  0
  7 20  1  0
  8 21  1  1
 12 22  1  0
 12 23  1  0
 12 24  1  0
 13 25  1  0
 13 26  1  0
M  CHG  1  11  -1
M  END
$$$$
=
     RDKit          3D

 37 38  0  0  0  0  0  0  0  0999 V2000
   18.3840   16.7580    4.4040 C   0  0  1  0  0  0  0  0  0  0  0  0
   14.7620   14.3530    4.3300 C   0  0  0  0  0  0  0  0  0  0  0  0
   15.7670   14.1540    3.3860 C   0  0  0  0  0  0  0  0  0  0  0  0
   16.9380   14.9220    3.4310 C   0  0  0  0  0  0  0  0  0  0  0  0
   17.1260   15.9020    4.4210 C   0  0  0  0  0  0  0  0  0  0  0  0
   16.1040   16.0970    5.3600 C   0  0  0  0  0  0  0  0  0  0  0  0
   14.9340   15.3320    5.3080 C   0  0  0  0  0  0  0  0  0  0  0  0
   13.5700   13.6880    4.3910 O   0  0  0  0  0  0  0  0  0  0  0  0
   12.1820   12.5620    2.7610 C   0  0  0  0  0  0  0  0  0  0  0  0
   13.4220   12.4870    3.6340 C   0  0  0  0  0  0  0  0  0  0  0  0
   19.1820   16.5590    5.7310 N   0  0  0  0  0  4  0  0  0  0  0  0
   20.6000   17.0530    5.6080 C   0  0  0  0  0  0  0  0  0  0  0  0
   21.3540   16.2010    6.6040 C   0  0  0  0  0  0  0  0  0  0  0  0
   20.7330   14.8350    6.4050 C   0  0  0  0  0  0  0  0  0  0  0  0
   19.2530   15.1250    6.2170 C   0  0  0  0  0  0  0  0  0  0  0  0
   19.1840   16.6630    3.0530 C   0  0  0  0  0  0  0  0  0  0  0  0
   19.2500   17.7320    2.3880 O   0  0  0  0  0  0  0  0  0  0  0  0
   19.7380   15.5420    2.8480 O   0  0  0  0  0  1  0  0  0  0  0  0
   18.1100   17.8233    4.4008 H   0  0  0  0  0  0  0  0  0  0  0  0
   15.6408   13.3917    2.6030 H   0  0  0  0  0  0  0  0  0  0  0  0
   17.7233   14.7553    2.6790 H   0  0  0  0  0  0  0  0  0  0  0  0
   16.2230   16.8584    6.1449 H   0  0  0  0  0  0  0  0  0  0  0  0
   14.1391   15.5050    6.0484 H   0  0  0  0  0  0  0  0  0  0  0  0
   11.2873   12.6161    3.3987 H   0  0  0  0  0  0  0  0  0  0  0  0
   12.2344   13.4586    2.1259 H   0  0  0  0  0  0  0  0  0  0  0  0
   12.1259   11.6656    2.1259 H   0  0  0  0  0  0  0  0  0  0  0  0
   13.3300   11.6337    4.3221 H   0  0  0  0  0  0  0  0  0  0  0  0
   14.3048   12.3595    2.9903 H   0  0  0  0  0  0  0  0  0  0  0  0
   18.6466   17.1100    6.4170 H   0  0  0  0  0  0  0  0  0  0  0  0
   20.9835   16.8996    4.5885 H   0  0  0  0  0  0  0  0  0  0  0  0
   20.6982   18.1311    5.8030 H   0  0  0  0  0  0  0  0  0  0  0  0
   22.4305   16.1847    6.3783 H   0  0  0  0  0  0  0  0  0  0  0  0
   21.2816   16.5686    7.6382 H   0  0  0  0  0  0  0  0  0  0  0  0
   21.1506   14.3421    5.5147 H   0  0  0  0  0  0  0  0  0  0  0  0
   20.9265   14.1561    7.2486 H   0  0  0  0  0  0  0  0  0  0  0  0
   18.8192   14.4437    5.4702 H   0  0  0  0  0  0  0  0  0  0  0  0
   18.6864   14.9805    7.1487 H   0  0  0  0  0  0  0  0  0  0  0  0
  3  2  2  0
  4  3  1  0
  5  4  2  0
  5  1  1  0
  6  5  1  0
  7  6  2  0
  7  2  1  0
  8  2  1  0
 10  9  1  0
 10  8  1  0
 11  1  1  0
 12 11  1  0
 13 12  1  0
 14 13  1  0
 15 14  1  0
 15 11  1  0
 16  1  1  0
 17 16  2  0
 18 16  1  0
  1 19  1  1
  3 20  1  0
  4 21  1  0
  6 22  1  0
  7 23  1  0
  9 24  1  0
  9 25  1  0
  9 26  1  0
 10 27  1  0
 10 28  1  0
 11 29  1  0
 12 30  1  0
 12 31  1  0
 13 32  1  0
 13 33  1  0
 14 34  1  0
 14 35  1  0
 15 36  1  0
 15 37  1  0
M  CHG  2  11   1  18  -1
M  END
$$$$
=
     RDKit          3D

 27 28  0  0  0  0  0  0  0  0999 V2000
   17.4510   15.6670    4.8640 C   0  0  0  0  0  0  0  0  0  0  0  0
   16.9270   15.8210    6.2920 C   0  0  0  0  0  0  0  0  0  0  0  0
   17.4270   17.0280    5.5660 C   0  0  0  0  0  0  0  0  0  0  0  0
   19.3400   14.5820    5.7890 O   0  0  0  0  0  1  0  0  0  0  0  0
   18.7920   15.0210    4.7290 C   0  0  0  0  0  0  0  0  0  0  0  0
   19.2880   14.9450    3.5600 O   0  0  0  0  0  0  0  0  0  0  0  0
   16.4440   15.2800    3.7870 C   0  0  0  0  0  0  0  0  0  0  0  0
   15.2780   14.3800    4.2020 C   0  0  0  0  0  0  0  0  0  0  0  0
   13.9540   15.1510    4.2330 C   0  0  0  0  0  0  0  0  0  0  0  0
   12.8940   14.0580    4.2630 C   0  0  0  0  0  0  0  0  0  0  0  0
   13.5090   12.8670    3.5300 C   0  0  0  0  0  0  0  0  0  0  0  0
   14.9520   13.2560    3.2170 C   0  0  0  0  0  0  0  0  0  0  0  0
   15.8516   15.7108    6.4956 H   0  0  0  0  0  0  0  0  0  0  0  0
   17.1616   15.3471    7.2565 H   0  0  0  0  0  0  0  0  0  0  0  0
   18.3703   17.5020    5.8752 H   0  0  0  0  0  0  0  0  0  0  0  0
   17.0066   18.0156    5.3252 H   0  0  0  0  0  0  0  0  0  0  0  0
   16.0158   16.2106    3.3864 H   0  0  0  0  0  0  0  0  0  0  0  0
   17.0197   14.6796    3.0672 H   0  0  0  0  0  0  0  0  0  0  0  0
   15.6200   13.9931    5.1733 H   0  0  0  0  0  0  0  0  0  0  0  0
   13.8901   15.7829    5.1311 H   0  0  0  0  0  0  0  0  0  0  0  0
   13.8386   15.8303    3.3755 H   0  0  0  0  0  0  0  0  0  0  0  0
   12.6521   13.7864    5.3011 H   0  0  0  0  0  0  0  0  0  0  0  0
   11.9573   14.3871    3.7894 H   0  0  0  0  0  0  0  0  0  0  0  0
   13.4857   11.9725    4.1698 H   0  0  0  0  0  0  0  0  0  0  0  0
   12.9505   12.6301    2.6124 H   0  0  0  0  0  0  0  0  0  0  0  0
   15.6256   12.3999    3.3697 H   0  0  0  0  0  0  0  0  0  0  0  0
   15.0786   13.5719    2.1710 H   0  0  0  0  0  0  0  0  0  0  0  0
  2  1  1  0
  3  1  1  0
  3  2  1  0
  5  1  1  0
  5  4  1  0
  6  5  2  0
  7  1  1  0
  8  7  1  0
  9  8  1  0
 10  9  1  0
 11 10  1  0
 12 11  1  0
 12  8  1  0
  2 13  1  0
  2 14  1  0
  3 15  1  0
  3 16  1  0
  7 17  1  0
  7 18  1  0
  8 19  1  0
  9 20  1  0
  9 21  1  0
 10 22  1  0
 10 23  1  0
 11 24  1  0
 11 25  1  0
 12 26  1  0
 12 27  1  0
M  CHG  1   4  -1
M  END
$$$$
=
     RDKit          3D

 25 26  0  0  0  0  0  0  0  0999 V2000
   19.0340   16.8960    3.7630 C   0  0  1  0  0  0  0  0  0  0  0  0
   18.0770   15.6870    3.9120 C   0  0  0  0  0  0  0  0  0  0  0  0
   17.7440   15.3010    5.3770 C   0  0  1  0  0  0  0  0  0  0  0  0
   19.0150   15.0020    6.2060 C   0  0  0  0  0  0  0  0  0  0  0  0
   20.0890   15.9480    5.8400 C   0  0  0  0  0  0  0  0  0  0  0  0
   20.1420   16.7850    4.7480 C   0  0  0  0  0  0  0  0  0  0  0  0
   21.3790   17.4610    4.8660 C   0  0  0  0  0  0  0  0  0  0  0  0
   21.9860   16.9870    6.0060 C   0  0  0  0  0  0  0  0  0  0  0  0
   21.1970   16.0520    6.6120 O   0  0  0  0  0  0  0  0  0  0  0  0
   16.8870   16.3550    6.0570 C   0  0  0  0  0  0  0  0  0  0  0  0
   17.5600   17.4660    6.3990 F   0  0  0  0  0  0  0  0  0  0  0  0
   16.3250   15.8530    7.1830 F   0  0  0  0  0  0  0  0  0  0  0  0
   15.8650   16.7280    5.2490 F   0  0  0  0  0  0  0  0  0  0  0  0
   21.9520   18.5360    3.8990 C   0  0  0  0  0  0  0  0  0  0  0  0
   21.7360   18.3700    2.6620 O   0  0  0  0  0  0  0  0  0  0  0  0
   22.5850   19.4890    4.4530 O   0  0  0  0  0  1  0  0  0  0  0  0
   19.4870   16.9060    2.4130 O   0  0  0  0  0  0  0  0  0  0  0  0
   18.5320   17.8513    3.9762 H   0  0  0  0  0  0  0  0  0  0  0  0
   17.1348   15.9305    3.3992 H   0  0  0  0  0  0  0  0  0  0  0  0
   18.5974   14.8228    3.4735 H   0  0  0  0  0  0  0  0  0  0  0  0
   17.1580   14.3713    5.3284 H   0  0  0  0  0  0  0  0  0  0  0  0
   18.7853   15.1077    7.2765 H   0  0  0  0  0  0  0  0  0  0  0  0
   19.3502   13.9754    5.9968 H   0  0  0  0  0  0  0  0  0  0  0  0
   22.9683   17.3150    6.3769 H   0  0  0  0  0  0  0  0  0  0  0  0
   20.4766   16.9278    2.3972 H   0  0  0  0  0  0  0  0  0  0  0  0
  2  1  1  0
  3  2  1  0
  4  3  1  0
  5  4  1  0
  6  5  2  0
  6  1  1  0
  7  6  1  0
  8  7  2  0
  9  5  1  0
  9  8  1  0
 10  3  1  0
 11 10  1  0
 12 10  1  0
 13 10  1  0
 14  7  1  0
 15 14  2  0
 16 14  1  0
 17  1  1  0
  1 18  1  1
  2 19  1  0
  2 20  1  0
  3 21  1  6
  4 22  1  0
  4 23  1  0
  8 24  1  0
 17 25  1  0
M  CHG  1  16  -1
M  END
$$$$
=
     RDKit          3D

 20 20  0  0  0  0  0  0  0  0999 V2000
   19.2900   19.2590    6.1370 O   0  0  0  0  0  0  0  0  0  0  0  0
   19.5630   18.3740    5.3230 C   0  0  0  0  0  0  0  0  0  0  0  0
   18.5360   17.3270    5.0510 C   0  0  0  0  0  0  0  0  0  0  0  0
   18.6200   16.4420    3.9800 C   0  0  0  0  0  0  0  0  0  0  0  0
   17.6140   15.5020    3.8300 C   0  0  0  0  0  0  0  0  0  0  0  0
   16.5610   15.3790    4.6690 N   0  0  0  0  0  0  0  0  0  0  0  0
   16.4940   16.2650    5.6850 C   0  0  0  0  0  0  0  0  0  0  0  0
   17.4410   17.2470    5.9140 C   0  0  0  0  0  0  0  0  0  0  0  0
   20.9390   18.2580    4.7150 C   0  0  0  0  0  0  0  0  0  0  0  0
   21.9460   17.5930    5.6060 C   0  0  0  0  0  0  0  0  0  0  0  0
   22.9060   18.1840    6.1020 O   0  0  0  0  0  0  0  0  0  0  0  0
   21.6940   16.1400    6.0030 C   0  0  0  0  0  0  0  0  0  0  0  0
   21.8180   15.3050    5.0490 O   0  0  0  0  0  0  0  0  0  0  0  0
   21.3730   15.8820    7.2030 O   0  0  0  0  0  1  0  0  0  0  0  0
   19.4614   16.4879    3.2729 H   0  0  0  0  0  0  0  0  0  0  0  0
   17.6756   14.8126    2.9751 H   0  0  0  0  0  0  0  0  0  0  0  0
   15.6363   16.2026    6.3709 H   0  0  0  0  0  0  0  0  0  0  0  0
   17.3341   17.9477    6.7552 H   0  0  0  0  0  0  0  0  0  0  0  0
   20.8588   17.6731    3.7869 H   0  0  0  0  0  0  0  0  0  0  0  0
   21.2970   19.2833    4.5401 H   0  0  0  0  0  0  0  0  0  0  0  0
  2  1  2  0
  3  2  1  0
  4  3  2  0
  5  4  1  0
  6  5  2  0
  7  6  1  0
  8  7  2  0
  8  3  1  0
  9  2  1  0
 10  9  1  0
 11 10  2  0
 12 10  1  0
 13 12  2  0
 14 12  1  0
  4 15  1  0
  5 16  1  0
  7 17  1  0
  8 18  1  0
  9 19  1  0
  9 20  1  0
M  CHG  1  14  -1
M  END
$$$$
=
     RDKit          3D

 30 31  0  0  0  0  0  0  0  0999 V2000
   17.4050   15.4330    3.7650 C   0  0  2  0  0  0  0  0  0  0  0  0
   16.7440   15.8990    5.0600 C   0  0  0  0  0  0  0  0  0  0  0  0
   15.3200   16.0130    4.8850 O   0  0  0  0  0  0  0  0  0  0  0  0
   14.8110   14.8980    4.2670 C   0  0  0  0  0  0  0  0  0  0  0  0
   15.6060   13.9700    3.5880 C   0  0  0  0  0  0  0  0  0  0  0  0
   16.9620   14.0980    3.4480 O   0  0  0  0  0  0  0  0  0  0  0  0
   15.0230   12.8400    3.0160 C   0  0  0  0  0  0  0  0  0  0  0  0
   13.6420   12.6530    3.0950 C   0  0  0  0  0  0  0  0  0  0  0  0
   12.8450   13.5950    3.7500 C   0  0  0  0  0  0  0  0  0  0  0  0
   13.4300   14.7190    4.3350 C   0  0  0  0  0  0  0  0  0  0  0  0
   18.9340   15.4620    3.8690 C   0  0  0  0  0  0  0  0  0  0  0  0
   19.3420   15.7980    5.2000 O   0  0  0  0  0  0  0  0  0  0  0  0
   20.4860   16.6970    5.2270 C   0  0  1  0  0  0  0  0  0  0  0  0
   19.9310   18.1090    5.3300 C   0  0  0  0  0  0  0  0  0  0  0  0
   21.1820   15.4710    7.1900 O   0  0  0  0  0  1  0  0  0  0  0  0
   21.5040   16.3760    6.3700 C   0  0  0  0  0  0  0  0  0  0  0  0
   22.5500   17.0970    6.3540 O   0  0  0  0  0  0  0  0  0  0  0  0
   17.1087   16.1258    2.9635 H   0  0  0  0  0  0  0  0  0  0  0  0
   16.9538   15.1699    5.8565 H   0  0  0  0  0  0  0  0  0  0  0  0
   17.1495   16.8846    5.3324 H   0  0  0  0  0  0  0  0  0  0  0  0
   15.6508   12.0966    2.5030 H   0  0  0  0  0  0  0  0  0  0  0  0
   13.1810   11.7633    2.6412 H   0  0  0  0  0  0  0  0  0  0  0  0
   11.7559   13.4508    3.8047 H   0  0  0  0  0  0  0  0  0  0  0  0
   12.8027   15.4623    4.8488 H   0  0  0  0  0  0  0  0  0  0  0  0
   19.3330   14.4708    3.6079 H   0  0  0  0  0  0  0  0  0  0  0  0
   19.3224   16.2229    3.1761 H   0  0  0  0  0  0  0  0  0  0  0  0
   21.0759   16.5725    4.3070 H   0  0  0  0  0  0  0  0  0  0  0  0
   19.8229   18.3841    6.3895 H   0  0  0  0  0  0  0  0  0  0  0  0
   20.6202   18.8107    4.8375 H   0  0  0  0  0  0  0  0  0  0  0  0
   18.9484   18.1536    4.8375 H   0  0  0  0  0  0  0  0  0  0  0  0
  2  1  1  0
  3  2  1  0
  4  3  1  0
  5  4  2  0
  6  5  1  0
  6  1  1  0
  7  5  1  0
  8  7  2  0
  9  8  1  0
 10  9  2  0
 10  4  1  0
 11  1  1  0
 12 11  1  0
 13 12  1  0
 14 13  1  0
 16 15  1  0
 16 13  1  0
 17 16  2  0
  1 18  1  6
  2 19  1  0
  2 20  1  0
  7 21  1  0
  8 22  1  0
  9 23  1  0
 10 24  1  0
 11 25  1  0
 11 26  1  0
 13 27  1  6
 14 28  1  0
 14 29  1  0
 14 30  1  0
M  CHG  1  15  -1
M  END
$$$$
=
     RDKit          3D

 39 40  0  0  0  0  0  0  0  0999 V2000
   18.9120   15.9960    5.0640 N   0  0  1  0  0  4  0  0  0  0  0  0
   18.4650   17.1030    5.9450 C   0  0  0  0  0  0  0  0  0  0  0  0
   16.9460   16.9090    6.2190 C   0  0  0  0  0  0  0  0  0  0  0  0
   16.0680   16.4320    5.0150 C   0  0  0  0  0  0  0  0  0  0  0  0
   16.8000   15.3260    4.2420 C   0  0  2  0  0  0  0  0  0  0  0  0
   18.1070   15.9680    3.8020 C   0  0  0  0  0  0  0  0  0  0  0  0
   20.3820   15.6570    4.7820 C   0  0  0  0  0  0  0  0  0  0  0  0
   20.8290   14.5960    6.9180 O   0  0  0  0  0  1  0  0  0  0  0  0
   21.1730   15.5210    6.1570 C   0  0  0  0  0  0  0  0  0  0  0  0
   22.0000   16.4910    6.3440 O   0  0  0  0  0  0  0  0  0  0  0  0
   16.1440   14.6200    3.0640 C   0  0  0  0  0  0  0  0  0  0  0  0
   16.1270   13.1050    3.3640 N   0  0  2  0  0  4  0  0  0  0  0  0
   17.3410   12.3770    2.8500 C   0  0  0  0  0  0  0  0  0  0  0  0
   14.8750   12.4440    2.8750 C   0  0  0  0  0  0  0  0  0  0  0  0
   13.9720   11.8370    3.9120 C   0  0  0  0  0  0  0  0  0  0  0  0
   13.5670   13.1020    3.2090 C   0  0  0  0  0  0  0  0  0  0  0  0
   18.7311   15.2252    5.7228 H   0  0  0  0  0  0  0  0  0  0  0  0
   19.0227   17.0755    6.8927 H   0  0  0  0  0  0  0  0  0  0  0  0
   18.6475   18.0750    5.4633 H   0  0  0  0  0  0  0  0  0  0  0  0
   16.8450   16.1628    7.0209 H   0  0  0  0  0  0  0  0  0  0  0  0
   16.5685   17.9108    6.4718 H   0  0  0  0  0  0  0  0  0  0  0  0
   15.1116   16.0415    5.3929 H   0  0  0  0  0  0  0  0  0  0  0  0
   15.8820   17.2823    4.3424 H   0  0  0  0  0  0  0  0  0  0  0  0
   16.8607   14.4787    4.9408 H   0  0  0  0  0  0  0  0  0  0  0  0
   18.6041   15.3627    3.0297 H   0  0  0  0  0  0  0  0  0  0  0  0
   17.9709   16.9630    3.3533 H   0  0  0  0  0  0  0  0  0  0  0  0
   20.4392   14.7064    4.2314 H   0  0  0  0  0  0  0  0  0  0  0  0
   20.8325   16.4596    4.1797 H   0  0  0  0  0  0  0  0  0  0  0  0
   15.1149   14.9865    2.9353 H   0  0  0  0  0  0  0  0  0  0  0  0
   16.7044   14.8198    2.1388 H   0  0  0  0  0  0  0  0  0  0  0  0
   16.1493   13.0380    4.3916 H   0  0  0  0  0  0  0  0  0  0  0  0
   17.9401   12.0177    3.6997 H   0  0  0  0  0  0  0  0  0  0  0  0
   17.0229   11.5205    2.2374 H   0  0  0  0  0  0  0  0  0  0  0  0
   17.9467   13.0610    2.2374 H   0  0  0  0  0  0  0  0  0  0  0  0
   15.3504   12.0885    1.9489 H   0  0  0  0  0  0  0  0  0  0  0  0
   13.4440   10.8959    3.6987 H   0  0  0  0  0  0  0  0  0  0  0  0
   14.0877   11.5337    4.9630 H   0  0  0  0  0  0  0  0  0  0  0  0
   12.7422   13.0868    2.4814 H   0  0  0  0  0  0  0  0  0  0  0  0
   13.2631   14.1084    3.5327 H   0  0  0  0  0  0  0  0  0  0  0  0
  2  1  1  0
  3  2  1  0
  4  3  1  0
  5  4  1  0
  6  5  1  0
  6  1  1  0
  7  1  1  0
  9  7  1  0
  9  8  1  0
 10  9  2  0
 11  5  1  0
 12 11  1  0
 13 12  1  0
 14 12  1  0
 15 14  1  0
 16 15  1  0
 16 14  1  0
  1 17  1  1
  2 18  1  0
  2 19  1  0
  3 20  1  0
  3 21  1  0
  4 22  1  0
  4 23  1  0
  5 24  1  1
  6 25  1  0
  6 26  1  0
  7 27  1  0
  7 28  1  0
 11 29  1  0
 11 30  1  0
 12 31  1  1
 13 32  1  0
 13 33  1  0
 13 34  1  0
 14 35  1  0
 15 36  1  0
 15 37  1  0
 16 38  1  0
 16 39  1  0
M  CHG  3   1   1   8  -1  12   1
M  END
$$$$
=
     RDKit          3D

 22 22  0  0  0  0  0  0  0  0999 V2000
   20.6210   16.5700    5.1980 C   0  0  0  0  0  0  0  0  0  0  0  0
   19.3810   15.9300    5.0860 C   0  0  0  0  0  0  0  0  0  0  0  0
   18.5880   16.1910    3.9790 C   0  0  0  0  0  0  0  0  0  0  0  0
   18.9330   17.0390    2.9850 N   0  0  0  0  0  0  0  0  0  0  0  0
   20.1360   17.6420    3.1100 C   0  0  0  0  0  0  0  0  0  0  0  0
   20.9990   17.4450    4.1750 C   0  0  0  0  0  0  0  0  0  0  0  0
   22.5910   17.0110    6.4480 O   0  0  0  0  0  1  0  0  0  0  0  0
   21.5230   16.3270    6.3840 C   0  0  0  0  0  0  0  0  0  0  0  0
   21.1410   15.4530    7.2240 O   0  0  0  0  0  0  0  0  0  0  0  0
   17.3720   15.5350    3.9370 O   0  0  0  0  0  0  0  0  0  0  0  0
   16.4840   15.8540    5.0070 C   0  0  0  0  0  0  0  0  0  0  0  0
   15.1360   15.3230    4.7550 C   0  0  0  0  0  0  0  0  0  0  0  0
   14.0310   14.8900    4.5610 C   0  0  0  0  0  0  0  0  0  0  0  0
   12.6820   14.3670    4.3540 C   0  0  0  0  0  0  0  0  0  0  0  0
   19.0410   15.2308    5.8642 H   0  0  0  0  0  0  0  0  0  0  0  0
   20.4499   18.3339    2.3145 H   0  0  0  0  0  0  0  0  0  0  0  0
   21.9658   17.9682    4.2155 H   0  0  0  0  0  0  0  0  0  0  0  0
   16.8733   15.4176    5.9387 H   0  0  0  0  0  0  0  0  0  0  0  0
   16.4174   16.9488    5.0900 H   0  0  0  0  0  0  0  0  0  0  0  0
   12.2066   14.1827    5.3287 H   0  0  0  0  0  0  0  0  0  0  0  0
   12.0874   15.0998    3.7888 H   0  0  0  0  0  0  0  0  0  0  0  0
   12.7367   13.4249    3.7888 H   0  0  0  0  0  0  0  0  0  0  0  0
  2  1  2  0
  3  2  1  0
  4  3  2  0
  5  4  1  0
  6  5  2  0
  6  1  1  0
  8  1  1  0
  8  7  1  0
  9  8  2  0
 10  3  1  0
 11 10  1  0
 12 11  1  0
 13 12  3  0
 14 13  1  0
  2 15  1  0
  5 16  1  0
  6 17  1  0
 11 18  1  0
 11 19  1  0
 14 20  1  0
 14 21  1  0
 14 22  1  0
M  CHG  1   7  -1
M  END
$$$$
=
     RDKit          3D

 32 34  0  0  0  0  0  0  0  0999 V2000
   12.8730   14.3980    4.2010 C   0  0  0  0  0  0  0  0  0  0  0  0
   13.9520   15.1400    4.5240 N   0  0  0  0  0  0  0  0  0  0  0  0
   14.9580   14.3790    4.0490 N   0  0  0  0  0  0  0  0  0  0  0  0
   14.4410   13.2380    3.5090 C   0  0  0  0  0  0  0  0  0  0  0  0
   13.1450   13.1920    3.5810 N   0  0  0  0  0  0  0  0  0  0  0  0
   15.6700   12.2020    2.8760 S   0  0  0  0  0  0  0  0  0  0  0  0
   16.8940   13.4110    3.3670 C   0  0  0  0  0  0  0  0  0  0  0  0
   16.3460   14.4880    3.9830 C   0  0  0  0  0  0  0  0  0  0  0  0
   18.3240   13.1440    3.0260 C   0  0  0  0  0  0  0  0  0  0  0  0
   17.0780   15.6510    4.5020 C   0  0  0  0  0  0  0  0  0  0  0  0
   16.6930   16.2620    5.7070 C   0  0  0  0  0  0  0  0  0  0  0  0
   17.3930   17.3700    6.1940 C   0  0  0  0  0  0  0  0  0  0  0  0
   18.4700   17.8700    5.4740 C   0  0  0  0  0  0  0  0  0  0  0  0
   18.8590   17.2900    4.2740 C   0  0  0  0  0  0  0  0  0  0  0  0
   18.1620   16.1810    3.7870 C   0  0  0  0  0  0  0  0  0  0  0  0
   19.1410   18.9310    5.9450 F   0  0  0  0  0  0  0  0  0  0  0  0
   11.4810   14.8460    4.4850 C   0  0  0  0  0  0  0  0  0  0  0  0
   10.5580   13.6760    4.7850 C   0  0  0  0  0  0  0  0  0  0  0  0
    8.7290   14.3350    6.0940 O   0  0  0  0  0  1  0  0  0  0  0  0
    9.8730   13.7960    6.1400 C   0  0  0  0  0  0  0  0  0  0  0  0
   10.5060   13.3560    7.1390 O   0  0  0  0  0  0  0  0  0  0  0  0
   18.9076   13.0350    3.9520 H   0  0  0  0  0  0  0  0  0  0  0  0
   18.3937   12.2173    2.4375 H   0  0  0  0  0  0  0  0  0  0  0  0
   18.7234   13.9831    2.4375 H   0  0  0  0  0  0  0  0  0  0  0  0
   15.8355   15.8662    6.2709 H   0  0  0  0  0  0  0  0  0  0  0  0
   17.0927   17.8424    7.1409 H   0  0  0  0  0  0  0  0  0  0  0  0
   19.7099   17.7006    3.7106 H   0  0  0  0  0  0  0  0  0  0  0  0
   18.4659   15.7202    2.8355 H   0  0  0  0  0  0  0  0  0  0  0  0
   11.4949   15.5198    5.3544 H   0  0  0  0  0  0  0  0  0  0  0  0
   11.0995   15.3599    3.5904 H   0  0  0  0  0  0  0  0  0  0  0  0
    9.7852   13.6289    4.0036 H   0  0  0  0  0  0  0  0  0  0  0  0
   11.1744   12.7651    4.8054 H   0  0  0  0  0  0  0  0  0  0  0  0
  2  1  2  0
  3  2  1  0
  4  3  1  0
  5  4  2  0
  5  1  1  0
  6  4  1  0
  7  6  1  0
  8  3  1  0
  8  7  2  0
  9  7  1  0
 10  8  1  0
 11 10  2  0
 12 11  1  0
 13 12  2  0
 14 13  1  0
 15 10  1  0
 15 14  2  0
 16 13  1  0
 17  1  1  0
 18 17  1  0
 20 18  1  0
 20 19  1  0
 21 20  2  0
  9 22  1  0
  9 23  1  0
  9 24  1  0
 11 25  1  0
 12 26  1  0
 14 27  1  0
 15 28  1  0
 17 29  1  0
 17 30  1  0
 18 31  1  0
 18 32  1  0
M  CHG  1  19  -1
M  END
$$$$
=
     RDKit          3D

 17 17  0  0  0  0  0  0  0  0999 V2000
   17.2820   14.6880    3.8460 C   0  0  0  0  0  0  0  0  0  0  0  0
   16.1930   14.0010    3.4690 C   0  0  0  0  0  0  0  0  0  0  0  0
   16.2860   12.7260    2.7370 C   0  0  0  0  0  0  0  0  0  0  0  0
   15.2850   12.1290    2.3590 O   0  0  0  0  0  0  0  0  0  0  0  0
   17.5500   12.2620    2.4950 N   0  0  0  0  0  0  0  0  0  0  0  0
   18.6830   12.9050    2.9820 N   0  0  0  0  0  0  0  0  0  0  0  0
   18.6320   14.1800    3.4900 C   0  0  0  0  0  0  0  0  0  0  0  0
   19.6550   14.8500    3.5920 O   0  0  0  0  0  0  0  0  0  0  0  0
   17.2110   15.9590    4.6400 C   0  0  0  0  0  0  0  0  0  0  0  0
   16.2020   15.6600    6.7460 O   0  0  0  0  0  1  0  0  0  0  0  0
   17.3170   15.7150    6.1490 C   0  0  0  0  0  0  0  0  0  0  0  0
   18.4790   15.5410    6.6160 O   0  0  0  0  0  0  0  0  0  0  0  0
   15.1988   14.4027    3.7144 H   0  0  0  0  0  0  0  0  0  0  0  0
   17.6666   11.4069    1.9327 H   0  0  0  0  0  0  0  0  0  0  0  0
   19.5864   12.4107    2.9611 H   0  0  0  0  0  0  0  0  0  0  0  0
   18.0375   16.6153    4.3299 H   0  0  0  0  0  0  0  0  0  0  0  0
   16.2322   16.4212    4.4441 H   0  0  0  0  0  0  0  0  0  0  0  0
  2  1  2  0
  3  2  1  0
  4  3  2  0
  5  3  1  0
  6  5  1  0
  7  6  1  0
  7  1  1  0
  8  7  2  0
  9  1  1  0
 11 10  1  0
 11  9  1  0
 12 11  2  0
  2 13  1  0
  5 14  1  0
  6 15  1  0
  9 16  1  0
  9 17  1  0
M  CHG  1  10  -1
M  END
$$$$
=
     RDKit          3D

 49 51  0  0  0  0  0  0  0  0999 V2000
   17.8750   14.3480    3.6640 C   0  0  0  0  0  0  0  0  0  0  0  0
   17.5740   13.0690    3.1680 C   0  0  0  0  0  0  0  0  0  0  0  0
   16.2460   12.6960    2.9740 C   0  0  0  0  0  0  0  0  0  0  0  0
   15.2380   13.6070    3.2810 C   0  0  0  0  0  0  0  0  0  0  0  0
   15.5310   14.9410    3.5550 C   0  0  0  0  0  0  0  0  0  0  0  0
   16.8560   15.3100    3.7680 C   0  0  0  0  0  0  0  0  0  0  0  0
   19.2300   14.6210    4.2630 C   0  0  0  0  0  0  0  0  0  0  0  0
   20.3060   14.6590    6.5270 C   0  0  0  0  0  0  0  0  0  0  0  0
   19.2050   15.1630    5.6610 N   0  0  1  0  0  4  0  0  0  0  0  0
   19.1210   16.6780    5.6340 C   0  0  0  0  0  0  0  0  0  0  0  0
   20.4360   17.3080    5.2120 C   0  0  0  0  0  0  0  0  0  0  0  0
   21.4060   17.3290    6.1750 N   0  0  0  0  0  0  0  0  0  0  0  0
   22.5870   17.9040    5.8550 C   0  0  0  0  0  0  0  0  0  0  0  0
   22.8540   18.4640    4.6190 C   0  0  0  0  0  0  0  0  0  0  0  0
   21.8530   18.4400    3.6530 C   0  0  0  0  0  0  0  0  0  0  0  0
   20.6120   17.8640    3.9400 C   0  0  0  0  0  0  0  0  0  0  0  0
   19.5310   17.8510    2.8990 C   0  0  0  0  0  0  0  0  0  0  0  0
   13.9510   13.1880    3.5310 O   0  0  0  0  0  0  0  0  0  0  0  0
   13.2480   14.1240    4.4050 C   0  0  0  0  0  0  0  0  0  0  0  0
   11.7710   13.8880    4.3930 C   0  0  0  0  0  0  0  0  0  0  0  0
   10.7890   13.9690    3.4280 C   0  0  0  0  0  0  0  0  0  0  0  0
    9.5520   13.7950    4.1010 C   0  0  0  0  0  0  0  0  0  0  0  0
    9.8420   13.6150    5.4410 C   0  0  0  0  0  0  0  0  0  0  0  0
   11.2030   13.5780    5.5980 O   0  0  0  0  0  0  0  0  0  0  0  0
    8.7810   13.5720    6.6190 C   0  0  0  0  0  0  0  0  0  0  0  0
    8.7090   12.5000    7.3040 O   0  0  0  0  0  0  0  0  0  0  0  0
    8.1390   14.6400    6.8560 O   0  0  0  0  0  1  0  0  0  0  0  0
   18.3848   12.3637    2.9333 H   0  0  0  0  0  0  0  0  0  0  0  0
   15.9973   11.6978    2.5845 H   0  0  0  0  0  0  0  0  0  0  0  0
   14.7277   15.6910    3.6023 H   0  0  0  0  0  0  0  0  0  0  0  0
   17.1049   16.3521    4.0171 H   0  0  0  0  0  0  0  0  0  0  0  0
   19.7958   13.6777    4.2724 H   0  0  0  0  0  0  0  0  0  0  0  0
   19.6920   15.3998    3.6385 H   0  0  0  0  0  0  0  0  0  0  0  0
   20.0286   14.7860    7.5839 H   0  0  0  0  0  0  0  0  0  0  0  0
   20.4776   13.5927    6.3185 H   0  0  0  0  0  0  0  0  0  0  0  0
   21.2253   15.2260    6.3185 H   0  0  0  0  0  0  0  0  0  0  0  0
   18.3518   14.7998    6.1094 H   0  0  0  0  0  0  0  0  0  0  0  0
   18.3377   16.9786    4.9226 H   0  0  0  0  0  0  0  0  0  0  0  0
   18.8861   17.0256    6.6508 H   0  0  0  0  0  0  0  0  0  0  0  0
   23.3781   17.9277    6.6189 H   0  0  0  0  0  0  0  0  0  0  0  0
   23.8333   18.9170    4.4050 H   0  0  0  0  0  0  0  0  0  0  0  0
   22.0387   18.8757    2.6602 H   0  0  0  0  0  0  0  0  0  0  0  0
   18.5476   17.8392    3.3917 H   0  0  0  0  0  0  0  0  0  0  0  0
   19.6157   18.7502    2.2711 H   0  0  0  0  0  0  0  0  0  0  0  0
   19.6373   16.9541    2.2711 H   0  0  0  0  0  0  0  0  0  0  0  0
   13.6205   14.0008    5.4327 H   0  0  0  0  0  0  0  0  0  0  0  0
   13.4357   15.1437    4.0377 H   0  0  0  0  0  0  0  0  0  0  0  0
   10.9356   14.1354    2.3506 H   0  0  0  0  0  0  0  0  0  0  0  0
    8.5517   13.8020    3.6434 H   0  0  0  0  0  0  0  0  0  0  0  0
  2  1  2  0
  3  2  1  0
  4  3  2  0
  5  4  1  0
  6  5  2  0
  6  1  1  0
  7  1  1  0
  9  7  1  0
  9  8  1  0
 10  9  1  0
 11 10  1  0
 12 11  2  0
 13 12  1  0
 14 13  2  0
 15 14  1  0
 16 11  1  0
 16 15  2  0
 17 16  1  0
 18  4  1  0
 19 18  1  0
 20 19  1  0
 21 20  2  0
 22 21  1  0
 23 22  2  0
 24 23  1  0
 24 20  1  0
 25 23  1  0
 26 25  2  0
 27 25  1  0
  2 28  1  0
  3 29  1  0
  5 30  1  0
  6 31  1  0
  7 32  1  0
  7 33  1  0
  8 34  1  0
  8 35  1  0
  8 36  1  0
  9 37  1  1
 10 38  1  0
 10 39  1  0
 13 40  1  0
 14 41  1  0
 15 42  1  0
 17 43  1  0
 17 44  1  0
 17 45  1  0
 19 46  1  0
 19 47  1  0
 21 48  1  0
 22 49  1  0
M  CHG  2   9   1  27  -1
M  END
$$$$
=
     RDKit          3D

 25 26  0  0  0  0  0  0  0  0999 V2000
   18.9440   16.2530    3.9690 C   0  0  2  0  0  0  0  0  0  0  0  0
   17.5010   15.8830    4.2950 C   0  0  0  0  0  0  0  0  0  0  0  0
   16.6210   16.4540    5.1990 C   0  0  0  0  0  0  0  0  0  0  0  0
   15.3440   15.8220    5.2060 C   0  0  0  0  0  0  0  0  0  0  0  0
   15.2770   14.7900    4.3010 C   0  0  0  0  0  0  0  0  0  0  0  0
   16.7400   14.5910    3.4430 S   0  0  0  0  0  0  0  0  0  0  0  0
   19.8170   15.8560    5.0990 N   0  0  0  0  0  0  0  0  0  0  0  0
   19.7180   14.6990    5.8390 C   0  0  0  0  0  0  0  0  0  0  0  0
   20.7040   14.7160    6.8000 C   0  0  0  0  0  0  0  0  0  0  0  0
   21.4220   15.9250    6.6470 C   0  0  0  0  0  0  0  0  0  0  0  0
   20.8530   16.6120    5.5960 C   0  0  0  0  0  0  0  0  0  0  0  0
   19.1780   17.7270    3.6530 C   0  0  0  0  0  0  0  0  0  0  0  0
   21.2290   18.2060    2.6040 O   0  0  0  0  0  1  0  0  0  0  0  0
   20.0420   17.8230    2.4120 C   0  0  0  0  0  0  0  0  0  0  0  0
   19.4530   17.5310    1.3350 O   0  0  0  0  0  0  0  0  0  0  0  0
   19.1886   15.7063    3.0463 H   0  0  0  0  0  0  0  0  0  0  0  0
   16.8807   17.3063    5.8441 H   0  0  0  0  0  0  0  0  0  0  0  0
   14.5112   16.1241    5.8580 H   0  0  0  0  0  0  0  0  0  0  0  0
   14.3850   14.1650    4.1472 H   0  0  0  0  0  0  0  0  0  0  0  0
   18.9784   13.8988    5.6884 H   0  0  0  0  0  0  0  0  0  0  0  0
   20.8976   13.9336    7.5486 H   0  0  0  0  0  0  0  0  0  0  0  0
   22.2770   16.2561    7.2548 H   0  0  0  0  0  0  0  0  0  0  0  0
   21.1724   17.5951    5.2198 H   0  0  0  0  0  0  0  0  0  0  0  0
   18.2139   18.2252    3.4730 H   0  0  0  0  0  0  0  0  0  0  0  0
   19.6798   18.2183    4.4997 H   0  0  0  0  0  0  0  0  0  0  0  0
  2  1  1  0
  3  2  2  0
  4  3  1  0
  5  4  2  0
  6  5  1  0
  6  2  1  0
  7  1  1  0
  8  7  1  0
  9  8  2  0
 10  9  1  0
 11  7  1  0
 11 10  2  0
 12  1  1  0
 14 13  1  0
 14 12  1  0
 15 14  2  0
  1 16  1  6
  3 17  1  0
  4 18  1  0
  5 19  1  0
  8 20  1  0
  9 21  1  0
 10 22  1  0
 11 23  1  0
 12 24  1  0
 12 25  1  0
M  CHG  1  13  -1
M  END
$$$$
=
     RDKit          3D

 36 37  0  0  0  0  0  0  0  0999 V2000
   17.9330   14.1990    4.5920 C   0  0  2  0  0  0  0  0  0  0  0  0
   21.4810   16.2340    6.1070 C   0  0  0  0  0  0  0  0  0  0  0  0
   20.8280   15.2670    6.8720 C   0  0  0  0  0  0  0  0  0  0  0  0
   19.6960   14.6170    6.3690 C   0  0  0  0  0  0  0  0  0  0  0  0
   19.1960   14.9130    5.0940 C   0  0  0  0  0  0  0  0  0  0  0  0
   19.8510   15.8940    4.3390 C   0  0  0  0  0  0  0  0  0  0  0  0
   20.9880   16.5390    4.8380 C   0  0  0  0  0  0  0  0  0  0  0  0
   22.8950   18.0870    5.7030 C   0  0  0  0  0  0  0  0  0  0  0  0
   22.5940   16.9400    6.4840 O   0  0  0  0  0  0  0  0  0  0  0  0
   18.3160   13.3700    3.3300 C   0  0  0  0  0  0  0  0  0  0  0  0
   18.4860   14.0020    2.2420 O   0  0  0  0  0  0  0  0  0  0  0  0
   18.4550   12.1190    3.5220 O   0  0  0  0  0  1  0  0  0  0  0  0
   16.7530   15.1800    4.3850 C   0  0  1  0  0  0  0  0  0  0  0  0
   15.4350   14.4520    4.0820 C   0  0  0  0  0  0  0  0  0  0  0  0
   15.4080   13.2020    3.4470 C   0  0  0  0  0  0  0  0  0  0  0  0
   14.1960   12.5650    3.1680 C   0  0  0  0  0  0  0  0  0  0  0  0
   12.9920   13.1770    3.5110 C   0  0  0  0  0  0  0  0  0  0  0  0
   13.0010   14.4260    4.1270 C   0  0  0  0  0  0  0  0  0  0  0  0
   14.2140   15.0580    4.4090 C   0  0  0  0  0  0  0  0  0  0  0  0
   16.4960   16.1400    5.5850 C   0  0  0  0  0  0  0  0  0  0  0  0
   16.1760   15.5740    6.6800 O   0  0  0  0  0  0  0  0  0  0  0  0
   16.6490   17.3850    5.3840 O   0  0  0  0  0  1  0  0  0  0  0  0
   17.5550   13.5003    5.3529 H   0  0  0  0  0  0  0  0  0  0  0  0
   21.2047   15.0148    7.8743 H   0  0  0  0  0  0  0  0  0  0  0  0
   19.1893   13.8599    6.9855 H   0  0  0  0  0  0  0  0  0  0  0  0
   19.4675   16.1603    3.3430 H   0  0  0  0  0  0  0  0  0  0  0  0
   21.4987   17.2947    4.2231 H   0  0  0  0  0  0  0  0  0  0  0  0
   23.1175   18.9349    6.3674 H   0  0  0  0  0  0  0  0  0  0  0  0
   23.7691   17.8793    5.0683 H   0  0  0  0  0  0  0  0  0  0  0  0
   22.0316   18.3353    5.0683 H   0  0  0  0  0  0  0  0  0  0  0  0
   17.0723   15.7810    3.5208 H   0  0  0  0  0  0  0  0  0  0  0  0
   16.3537   12.7163    3.1647 H   0  0  0  0  0  0  0  0  0  0  0  0
   14.1923   11.5804    2.6776 H   0  0  0  0  0  0  0  0  0  0  0  0
   12.0372   12.6750    3.2958 H   0  0  0  0  0  0  0  0  0  0  0  0
   12.0519   14.9151    4.3916 H   0  0  0  0  0  0  0  0  0  0  0  0
   14.2113   16.0451    4.8945 H   0  0  0  0  0  0  0  0  0  0  0  0
  3  2  2  0
  4  3  1  0
  5  1  1  0
  5  4  2  0
  6  5  1  0
  7  6  2  0
  7  2  1  0
  9  2  1  0
  9  8  1  0
 10  1  1  0
 11 10  2  0
 12 10  1  0
 13  1  1  0
 14 13  1  0
 15 14  2  0
 16 15  1  0
 17 16  2  0
 18 17  1  0
 19 18  2  0
 19 14  1  0
 20 13  1  0
 21 20  2  0
 22 20  1  0
  1 23  1  1
  3 24  1  0
  4 25  1  0
  6 26  1  0
  7 27  1  0
  8 28  1  0
  8 29  1  0
  8 30  1  0
 13 31  1  6
 15 32  1  0
 16 33  1  0
 17 34  1  0
 18 35  1  0
 19 36  1  0
M  CHG  2  12  -1  22  -1
M  END
$$$$
=
     RDKit          3D

 15 14  0  0  0  0  0  0  0  0999 V2000
   19.9810   16.0530    4.1820 C   0  0  2  0  0  0  0  0  0  0  0  0
   19.6500   17.3590    2.7200 Br  0  0  0  0  0  0  0  0  0  0  0  0
   19.0940   14.0300    3.2160 O   0  0  0  0  0  1  0  0  0  0  0  0
   18.8870   14.9640    4.0460 C   0  0  0  0  0  0  0  0  0  0  0  0
   17.8550   15.1200    4.7740 O   0  0  0  0  0  0  0  0  0  0  0  0
   20.1550   16.7650    5.5350 C   0  0  2  0  0  0  0  0  0  0  0  0
   20.3290   18.2840    5.4570 C   0  0  0  0  0  0  0  0  0  0  0  0
   21.2470   16.0870    6.3870 C   0  0  0  0  0  0  0  0  0  0  0  0
   20.9110   15.0040    6.9540 O   0  0  0  0  0  0  0  0  0  0  0  0
   22.3530   16.6960    6.4940 O   0  0  0  0  0  1  0  0  0  0  0  0
   20.9433   15.5248    4.1109 H   0  0  0  0  0  0  0  0  0  0  0  0
   19.1903   16.6427    6.0492 H   0  0  0  0  0  0  0  0  0  0  0  0
   20.3767   18.7003    6.4741 H   0  0  0  0  0  0  0  0  0  0  0  0
   21.2600   18.5194    4.9204 H   0  0  0  0  0  0  0  0  0  0  0  0
   19.4754   18.7238    4.9204 H   0  0  0  0  0  0  0  0  0  0  0  0
  2  1  1  0
  4  3  1  0
  4  1  1  0
  5  4  2  0
  6  1  1  0
  7  6  1  0
  8  6  1  0
  9  8  2  0
 10  8  1  0
  1 11  1  6
  6 12  1  1
  7 13  1  0
  7 14  1  0
  7 15  1  0
M  CHG  2   3  -1  10  -1
M  END
$$$$
=
     RDKit          3D

 60 63  0  0  0  0  0  0  0  0999 V2000
   26.4050   26.0590   16.6620 O   0  0  0  0  0  0  0  0  0  0  0  0
   26.0410   26.8630   15.8200 C   0  0  0  0  0  0  0  0  0  0  0  0
   24.7770   27.3270   15.6400 N   0  0  0  0  0  0  0  0  0  0  0  0
   23.6240   26.5720   16.1400 C   0  0  1  0  0  0  0  0  0  0  0  0
   23.2010   27.1500   17.4830 C   0  0  0  0  0  0  0  0  0  0  0  0
   22.5140   26.7850   15.0810 C   0  0  0  0  0  0  0  0  0  0  0  0
   21.5630   27.5350   15.3510 O   0  0  0  0  0  0  0  0  0  0  0  0
   22.6410   26.1830   13.8530 N   0  0  0  0  0  0  0  0  0  0  0  0
   23.6620   25.2010   13.4700 C   0  0  2  0  0  0  0  0  0  0  0  0
   23.2220   24.7570   12.0830 C   0  0  1  0  0  0  0  0  0  0  0  0
   22.3640   25.8130   11.6000 O   0  0  0  0  0  0  0  0  0  0  0  0
   21.7320   26.4130   12.7540 C   0  0  0  0  0  0  0  0  0  0  0  0
   20.3720   25.7460   12.9670 C   0  0  0  0  0  0  0  0  0  0  0  0
   21.5630   27.8930   12.3940 C   0  0  0  0  0  0  0  0  0  0  0  0
   24.3780   24.5920   11.1100 C   0  0  0  0  0  0  0  0  0  0  0  0
   23.7340   23.8820   14.2700 C   0  0  0  0  0  0  0  0  0  0  0  0
   22.6410   23.2740   14.4450 O   0  0  0  0  0  0  0  0  0  0  0  0
   24.8900   23.5800   14.6840 O   0  0  0  0  0  1  0  0  0  0  0  0
   26.8390   27.4180   14.8760 O   0  0  0  0  0  0  0  0  0  0  0  0
   28.0480   28.0200   15.3720 C   0  0  0  0  0  0  0  0  0  0  0  0
   29.2410   27.2640   14.7780 C   0  0  0  0  0  0  0  0  0  0  0  0
   28.8500   26.3990   13.5790 C   0  0  0  0  0  0  0  0  0  0  0  0
   28.2520   26.7910   12.3900 C   0  0  0  0  0  0  0  0  0  0  0  0
   27.9870   25.8100   11.4330 C   0  0  0  0  0  0  0  0  0  0  0  0
   28.3190   24.4660   11.6690 C   0  0  0  0  0  0  0  0  0  0  0  0
   28.9250   24.0790   12.8680 C   0  0  0  0  0  0  0  0  0  0  0  0
   29.1870   25.0500   13.8200 C   0  0  0  0  0  0  0  0  0  0  0  0
   29.7850   24.9430   15.1350 C   0  0  0  0  0  0  0  0  0  0  0  0
   29.8240   26.2230   15.7270 C   0  0  0  0  0  0  0  0  0  0  0  0
   30.3610   26.4160   16.9910 C   0  0  0  0  0  0  0  0  0  0  0  0
   30.8510   25.3010   17.6760 C   0  0  0  0  0  0  0  0  0  0  0  0
   30.8060   24.0240   17.0940 C   0  0  0  0  0  0  0  0  0  0  0  0
   30.2720   23.8380   15.8150 C   0  0  0  0  0  0  0  0  0  0  0  0
   24.6270   28.2188   15.1470 H   0  0  0  0  0  0  0  0  0  0  0  0
   23.8395   25.5034   16.2874 H   0  0  0  0  0  0  0  0  0  0  0  0
   23.6395   26.5508   18.2946 H   0  0  0  0  0  0  0  0  0  0  0  0
   23.5537   28.1889   17.5625 H   0  0  0  0  0  0  0  0  0  0  0  0
   22.1041   27.1280   17.5625 H   0  0  0  0  0  0  0  0  0  0  0  0
   24.6350   25.6954   13.6076 H   0  0  0  0  0  0  0  0  0  0  0  0
   22.7326   23.7742   12.1507 H   0  0  0  0  0  0  0  0  0  0  0  0
   20.1757   25.6497   14.0450 H   0  0  0  0  0  0  0  0  0  0  0  0
   19.5857   26.3607   12.5046 H   0  0  0  0  0  0  0  0  0  0  0  0
   20.3767   24.7479   12.5046 H   0  0  0  0  0  0  0  0  0  0  0  0
   21.4949   28.4892   13.3159 H   0  0  0  0  0  0  0  0  0  0  0  0
   22.4287   28.2280   11.8038 H   0  0  0  0  0  0  0  0  0  0  0  0
   20.6440   28.0242   11.8038 H   0  0  0  0  0  0  0  0  0  0  0  0
   25.3141   24.4584   11.6720 H   0  0  0  0  0  0  0  0  0  0  0  0
   24.2013   23.7100   10.4769 H   0  0  0  0  0  0  0  0  0  0  0  0
   24.4552   25.4882   10.4769 H   0  0  0  0  0  0  0  0  0  0  0  0
   28.0889   29.0766   15.0687 H   0  0  0  0  0  0  0  0  0  0  0  0
   28.0747   27.9669   16.4704 H   0  0  0  0  0  0  0  0  0  0  0  0
   29.9421   28.0760   14.5348 H   0  0  0  0  0  0  0  0  0  0  0  0
   27.9941   27.8445   12.2068 H   0  0  0  0  0  0  0  0  0  0  0  0
   27.5122   26.0932   10.4820 H   0  0  0  0  0  0  0  0  0  0  0  0
   28.0997   23.7090   10.9016 H   0  0  0  0  0  0  0  0  0  0  0  0
   29.1878   23.0267   13.0511 H   0  0  0  0  0  0  0  0  0  0  0  0
   30.4001   27.4187   17.4417 H   0  0  0  0  0  0  0  0  0  0  0  0
   31.2768   25.4251   18.6826 H   0  0  0  0  0  0  0  0  0  0  0  0
   31.1956   23.1592   17.6510 H   0  0  0  0  0  0  0  0  0  0  0  0
   30.2393   22.8375   15.3591 H   0  0  0  0  0  0  0  0  0  0  0  0
  2  1  2  0
  3  2  1  0
  4  3  1  0
  5  4  1  0
  6  4  1  0
  7  6  2  0
  8  6  1  0
  9  8  1  0
 10  9  1  0
 11 10  1  0
 12 11  1  0
 12  8  1  0
 13 12  1  0
 14 12  1  0
 15 10  1  0
 16  9  1  0
 17 16  2  0
 18 16  1  0
 19  2  1  0
 20 19  1  0
 21 20  1  0
 22 21  1  0
 23 22  2  0
 24 23  1  0
 25 24  2  0
 26 25  1  0
 27 26  2  0
 27 22  1  0
 28 27  1  0
 29 28  2  0
 29 21  1  0
 30 29  1  0
 31 30  2  0
 32 31  1  0
 33 28  1  0
 33 32  2  0
  3 34  1  0
  4 35  1  1
  5 36  1  0
  5 37  1  0
  5 38  1  0
  9 39  1  6
 10 40  1  1
 13 41  1  0
 13 42  1  0
 13 43  1  0
 14 44  1  0
 14 45  1  0
 14 46  1  0
 15 47  1  0
 15 48  1  0
 15 49  1  0
 20 50  1  0
 20 51  1  0
 21 52  1  0
 23 53  1  0
 24 54  1  0
 25 55  1  0
 26 56  1  0
 30 57  1  0
 31 58  1  0
 32 59  1  0
 33 60  1  0
M  CHG  1  18  -1
M  END
$$$$
=
     RDKit          3D

 19 20  0  0  0  0  0  0  0  0999 V2000
   13.8360   13.8960    3.8860 C   0  0  0  0  0  0  0  0  0  0  0  0
   14.2110   15.0440    4.5910 C   0  0  0  0  0  0  0  0  0  0  0  0
   15.5400   15.4640    4.5840 C   0  0  0  0  0  0  0  0  0  0  0  0
   16.4780   14.7240    3.8660 C   0  0  0  0  0  0  0  0  0  0  0  0
   16.1450   13.6060    3.1690 N   0  0  0  0  0  0  0  0  0  0  0  0
   14.8380   13.2250    3.1990 C   0  0  0  0  0  0  0  0  0  0  0  0
   17.8910   15.1400    3.8360 C   0  0  0  0  0  0  0  0  0  0  0  0
   18.9180   14.3160    3.5240 N   0  0  0  0  0  0  0  0  0  0  0  0
   19.9750   15.1310    3.6300 N   0  0  0  0  0  0  0  0  0  0  0  0
   19.6090   16.3840    3.9900 C   0  0  0  0  0  0  0  0  0  0  0  0
   18.3090   16.4300    4.1280 N   0  0  0  0  0  0  0  0  0  0  0  0
   12.0160   12.8480    2.7900 O   0  0  0  0  0  1  0  0  0  0  0  0
   12.4180   13.4010    3.8610 C   0  0  0  0  0  0  0  0  0  0  0  0
   11.7280   13.5740    4.9150 O   0  0  0  0  0  0  0  0  0  0  0  0
   13.4567   15.6159    5.1514 H   0  0  0  0  0  0  0  0  0  0  0  0
   15.8439   16.3654    5.1365 H   0  0  0  0  0  0  0  0  0  0  0  0
   14.5563   12.3211    2.6389 H   0  0  0  0  0  0  0  0  0  0  0  0
   20.9481   14.8402    3.4586 H   0  0  0  0  0  0  0  0  0  0  0  0
   20.2961   17.2294    4.1423 H   0  0  0  0  0  0  0  0  0  0  0  0
  2  1  2  0
  3  2  1  0
  4  3  2  0
  5  4  1  0
  6  5  2  0
  6  1  1  0
  7  4  1  0
  8  7  2  0
  9  8  1  0
 10  9  1  0
 11  7  1  0
 11 10  2  0
 13 12  1  0
 13  1  1  0
 14 13  2  0
  2 15  1  0
  3 16  1  0
  6 17  1  0
  9 18  1  0
 10 19  1  0
M  CHG  1  12  -1
M  END
$$$$
=
     RDKit          3D

 24 25  0  0  0  0  0  0  0  0999 V2000
   19.3950   15.6200    3.7580 C   0  0  0  0  0  0  0  0  0  0  0  0
   19.5040   16.7820    3.0020 C   0  0  0  0  0  0  0  0  0  0  0  0
   20.5100   17.5490    3.5260 N   0  0  0  0  0  0  0  0  0  0  0  0
   21.0600   16.9040    4.5940 C   0  0  0  0  0  0  0  0  0  0  0  0
   20.4160   15.6990    4.7550 C   0  0  0  0  0  0  0  0  0  0  0  0
   22.2270   17.5160    5.4220 C   0  0  0  0  0  0  0  0  0  0  0  0
   22.5460   16.9350    6.4980 O   0  0  0  0  0  0  0  0  0  0  0  0
   22.7330   18.5610    4.9110 O   0  0  0  0  0  1  0  0  0  0  0  0
   18.8040   13.4290    3.0950 O   0  0  0  0  0  0  0  0  0  0  0  0
   18.4600   14.5160    3.5560 C   0  0  0  0  0  0  0  0  0  0  0  0
   17.0270   14.6940    3.9130 C   0  0  0  0  0  0  0  0  0  0  0  0
   16.0790   13.8460    3.3250 C   0  0  0  0  0  0  0  0  0  0  0  0
   14.7290   13.9710    3.6530 C   0  0  0  0  0  0  0  0  0  0  0  0
   14.3220   14.9310    4.5790 C   0  0  0  0  0  0  0  0  0  0  0  0
   15.2640   15.7640    5.1850 C   0  0  0  0  0  0  0  0  0  0  0  0
   16.6170   15.6420    4.8590 C   0  0  0  0  0  0  0  0  0  0  0  0
   18.8860   17.0414    2.1298 H   0  0  0  0  0  0  0  0  0  0  0  0
   20.8051   18.4691    3.1693 H   0  0  0  0  0  0  0  0  0  0  0  0
   20.6451   14.9355    5.5130 H   0  0  0  0  0  0  0  0  0  0  0  0
   16.4000   13.0803    2.6034 H   0  0  0  0  0  0  0  0  0  0  0  0
   13.9852   13.3121    3.1811 H   0  0  0  0  0  0  0  0  0  0  0  0
   13.2564   15.0320    4.8324 H   0  0  0  0  0  0  0  0  0  0  0  0
   14.9410   16.5166    5.9193 H   0  0  0  0  0  0  0  0  0  0  0  0
   17.3605   16.2906    5.3454 H   0  0  0  0  0  0  0  0  0  0  0  0
  2  1  2  0
  3  2  1  0
  4  3  1  0
  5  1  1  0
  5  4  2  0
  6  4  1  0
  7  6  2  0
  8  6  1  0
 10  9  2  0
 10  1  1  0
 11 10  1  0
 12 11  2  0
 13 12  1  0
 14 13  2  0
 15 14  1  0
 16 15  2  0
 16 11  1  0
  2 17  1  0
  3 18  1  0
  5 19  1  0
 12 20  1  0
 13 21  1  0
 14 22  1  0
 15 23  1  0
 16 24  1  0
M  CHG  1   8  -1
M  END
$$$$
=
     RDKit          3D

 23 25  0  0  0  0  0  0  0  0999 V2000
   20.2060   16.6230    5.1470 C   0  0  0  0  0  0  0  0  0  0  0  0
   19.1050   17.3200    5.5910 C   0  0  0  0  0  0  0  0  0  0  0  0
   17.9520   16.5940    5.1790 C   0  0  0  0  0  0  0  0  0  0  0  0
   18.3970   15.4640    4.4870 C   0  0  0  0  0  0  0  0  0  0  0  0
   19.7720   15.5090    4.4850 N   0  0  0  0  0  0  0  0  0  0  0  0
   17.5160   14.5240    3.9390 C   0  0  0  0  0  0  0  0  0  0  0  0
   18.0680   13.4690    3.2920 N   0  0  0  0  0  0  0  0  0  0  0  0
   17.2040   12.5750    2.7710 C   0  0  0  0  0  0  0  0  0  0  0  0
   15.8230   12.6810    2.8650 C   0  0  0  0  0  0  0  0  0  0  0  0
   15.2820   13.7760    3.5370 C   0  0  0  0  0  0  0  0  0  0  0  0
   16.1320   14.7380    4.0980 C   0  0  0  0  0  0  0  0  0  0  0  0
   15.6670   15.8670    4.7890 C   0  0  0  0  0  0  0  0  0  0  0  0
   16.5660   16.7970    5.3300 C   0  0  0  0  0  0  0  0  0  0  0  0
   22.2060   16.6320    6.4420 O   0  0  0  0  0  1  0  0  0  0  0  0
   21.7090   16.9760    5.3280 C   0  0  0  0  0  0  0  0  0  0  0  0
   22.2790   17.5620    4.3630 O   0  0  0  0  0  0  0  0  0  0  0  0
   19.1145   18.2623    6.1584 H   0  0  0  0  0  0  0  0  0  0  0  0
   20.3849   14.8057    4.0483 H   0  0  0  0  0  0  0  0  0  0  0  0
   17.6193   11.7070    2.2379 H   0  0  0  0  0  0  0  0  0  0  0  0
   15.1694   11.9171    2.4186 H   0  0  0  0  0  0  0  0  0  0  0  0
   14.1910   13.8844    3.6265 H   0  0  0  0  0  0  0  0  0  0  0  0
   14.5848   16.0243    4.9077 H   0  0  0  0  0  0  0  0  0  0  0  0
   16.1915   17.6797    5.8690 H   0  0  0  0  0  0  0  0  0  0  0  0
  2  1  2  0
  3  2  1  0
  4  3  2  0
  5  4  1  0
  5  1  1  0
  6  4  1  0
  7  6  2  0
  8  7  1  0
  9  8  2  0
 10  9  1  0
 11 10  2  0
 11  6  1  0
 12 11  1  0
 13 12  2  0
 13  3  1  0
 15  1  1  0
 15 14  1  0
 16 15  2  0
  2 17  1  0
  5 18  1  0
  8 19  1  0
  9 20  1  0
 10 21  1  0
 12 22  1  0
 13 23  1  0
M  CHG  1  14  -1
M  END
$$$$
=
     RDKit          3D

 31 32  0  0  0  0  0  0  0  0999 V2000
   12.6070   14.0180    4.0340 C   0  0  0  0  0  0  0  0  0  0  0  0
   13.6150   14.8640    4.5350 C   0  0  0  0  0  0  0  0  0  0  0  0
   14.9190   14.5930    4.1860 C   0  0  0  0  0  0  0  0  0  0  0  0
   15.2520   13.5140    3.3680 C   0  0  0  0  0  0  0  0  0  0  0  0
   14.2940   12.6610    2.8660 C   0  0  0  0  0  0  0  0  0  0  0  0
   12.9480   12.9120    3.1990 C   0  0  0  0  0  0  0  0  0  0  0  0
   11.8840   11.9910    2.6580 C   0  0  0  0  0  0  0  0  0  0  0  0
   16.6440   13.5100    3.2060 N   0  0  0  0  0  0  0  0  0  0  0  0
   17.1940   14.5940    3.9250 C   0  0  0  0  0  0  0  0  0  0  0  0
   18.3750   14.8950    4.0040 O   0  0  0  0  0  0  0  0  0  0  0  0
   16.1050   15.2560    4.5290 N   0  0  0  0  0  0  0  0  0  0  0  0
   16.1820   16.4250    5.3560 C   0  0  0  0  0  0  0  0  0  0  0  0
   17.3820   12.5600    2.4300 C   0  0  0  0  0  0  0  0  0  0  0  0
   10.6710   13.8350    5.5740 C   0  0  0  0  0  0  0  0  0  0  0  0
   11.2110   14.2630    4.4230 C   0  0  0  0  0  0  0  0  0  0  0  0
    9.0110   14.1640    7.1950 O   0  0  0  0  0  1  0  0  0  0  0  0
    9.2150   14.1170    5.9480 C   0  0  0  0  0  0  0  0  0  0  0  0
    8.4070   14.2650    4.9910 O   0  0  0  0  0  0  0  0  0  0  0  0
   13.3680   15.7158    5.1857 H   0  0  0  0  0  0  0  0  0  0  0  0
   14.5709   11.8107    2.2254 H   0  0  0  0  0  0  0  0  0  0  0  0
   11.3439   11.5235    3.4945 H   0  0  0  0  0  0  0  0  0  0  0  0
   11.1781   12.5679    2.0424 H   0  0  0  0  0  0  0  0  0  0  0  0
   12.3537   11.2097    2.0424 H   0  0  0  0  0  0  0  0  0  0  0  0
   16.1624   16.1271    6.4147 H   0  0  0  0  0  0  0  0  0  0  0  0
   17.1175   16.9633    5.1438 H   0  0  0  0  0  0  0  0  0  0  0  0
   15.3251   17.0813    5.1438 H   0  0  0  0  0  0  0  0  0  0  0  0
   17.9159   11.8727    3.1027 H   0  0  0  0  0  0  0  0  0  0  0  0
   16.6893   11.9877    1.7955 H   0  0  0  0  0  0  0  0  0  0  0  0
   18.1079   13.0896    1.7955 H   0  0  0  0  0  0  0  0  0  0  0  0
   11.2971   13.2613    6.2731 H   0  0  0  0  0  0  0  0  0  0  0  0
   10.5720   14.8302    3.7302 H   0  0  0  0  0  0  0  0  0  0  0  0
  2  1  2  0
  3  2  1  0
  4  3  2  0
  5  4  1  0
  6  5  2  0
  6  1  1  0
  7  6  1  0
  8  4  1  0
  9  8  1  0
 10  9  2  0
 11  3  1  0
 11  9  1  0
 12 11  1  0
 13  8  1  0
 15 14  2  0
 15  1  1  0
 17 16  1  0
 17 14  1  0
 18 17  2  0
  2 19  1  0
  5 20  1  0
  7 21  1  0
  7 22  1  0
  7 23  1  0
 12 24  1  0
 12 25  1  0
 12 26  1  0
 13 27  1  0
 13 28  1  0
 13 29  1  0
 14 30  1  0
 15 31  1  0
M  CHG  1  16  -1
M  END
$$$$
=
     RDKit          3D

 26 27  0  0  0  0  0  0  0  0999 V2000
   15.8360   12.9510    2.8450 C   0  0  0  0  0  0  0  0  0  0  0  0
   14.5690   12.3960    2.6630 C   0  0  0  0  0  0  0  0  0  0  0  0
   13.4560   12.9640    3.2760 C   0  0  0  0  0  0  0  0  0  0  0  0
   13.5800   14.1030    4.0880 C   0  0  0  0  0  0  0  0  0  0  0  0
   14.8470   14.7300    4.2260 C   0  0  0  0  0  0  0  0  0  0  0  0
   15.9490   14.1310    3.5920 C   0  0  0  0  0  0  0  0  0  0  0  0
   17.0450   14.9240    3.8450 N   0  0  0  0  0  0  0  0  0  0  0  0
   16.6950   15.9720    4.6430 C   0  0  0  0  0  0  0  0  0  0  0  0
   15.3420   15.9030    4.8760 C   0  0  0  0  0  0  0  0  0  0  0  0
   17.7190   17.0240    5.1460 C   0  0  0  0  0  0  0  0  0  0  0  0
   17.4020   17.5850    6.2370 O   0  0  0  0  0  0  0  0  0  0  0  0
   18.7400   17.2210    4.4270 O   0  0  0  0  0  1  0  0  0  0  0  0
   17.9470   12.0830    3.1370 C   0  0  0  0  0  0  0  0  0  0  0  0
   16.9000   12.3510    2.2050 O   0  0  0  0  0  0  0  0  0  0  0  0
   12.3820   14.5510    4.6280 O   0  0  0  0  0  0  0  0  0  0  0  0
   11.2290   14.0300    3.9740 C   0  0  0  0  0  0  0  0  0  0  0  0
   14.4489   11.5038    2.0310 H   0  0  0  0  0  0  0  0  0  0  0  0
   12.4642   12.5139    3.1221 H   0  0  0  0  0  0  0  0  0  0  0  0
   17.9936   14.7504    3.4832 H   0  0  0  0  0  0  0  0  0  0  0  0
   14.7468   16.6217    5.4584 H   0  0  0  0  0  0  0  0  0  0  0  0
   17.5599   12.1821    4.1618 H   0  0  0  0  0  0  0  0  0  0  0  0
   18.3214   11.0601    2.9838 H   0  0  0  0  0  0  0  0  0  0  0  0
   18.7668   12.8003    2.9838 H   0  0  0  0  0  0  0  0  0  0  0  0
   10.4982   13.6998    4.7269 H   0  0  0  0  0  0  0  0  0  0  0  0
   10.7793   14.8124    3.3450 H   0  0  0  0  0  0  0  0  0  0  0  0
   11.5190   13.1755    3.3450 H   0  0  0  0  0  0  0  0  0  0  0  0
  2  1  2  0
  3  2  1  0
  4  3  2  0
  5  4  1  0
  6  5  2  0
  6  1  1  0
  7  6  1  0
  8  7  1  0
  9  5  1  0
  9  8  2  0
 10  8  1  0
 11 10  2  0
 12 10  1  0
 14  1  1  0
 14 13  1  0
 15  4  1  0
 16 15  1  0
  2 17  1  0
  3 18  1  0
  7 19  1  0
  9 20  1  0
 13 21  1  0
 13 22  1  0
 13 23  1  0
 16 24  1  0
 16 25  1  0
 16 26  1  0
M  CHG  1  12  -1
M  END
$$$$
=
     RDKit          3D

 49 49  0  0  0  0  0  0  0  0999 V2000
   15.5070   15.4030    5.5250 C   0  0  0  0  0  0  0  0  0  0  0  0
   15.1270   15.0690    4.0790 C   0  0  0  0  0  0  0  0  0  0  0  0
   15.8030   13.7980    3.5550 C   0  0  0  0  0  0  0  0  0  0  0  0
   14.8400   12.9770    2.6930 C   0  0  0  0  0  0  0  0  0  0  0  0
   13.6440   12.4240    3.4730 C   0  0  0  0  0  0  0  0  0  0  0  0
   12.2760   12.5860    2.8000 C   0  0  0  0  0  0  0  0  0  0  0  0
   11.3260   13.5950    3.4540 C   0  0  0  0  0  0  0  0  0  0  0  0
   11.5650   13.8190    4.9460 C   0  0  0  0  0  0  0  0  0  0  0  0
    9.2260   14.0590    5.2840 O   0  0  0  0  0  1  0  0  0  0  0  0
   10.3200   13.7610    5.8370 C   0  0  0  0  0  0  0  0  0  0  0  0
   10.5450   13.3980    7.0270 O   0  0  0  0  0  0  0  0  0  0  0  0
   16.6070   16.4630    5.6370 C   0  0  0  0  0  0  0  0  0  0  0  0
   17.9440   15.8250    6.0220 C   0  0  0  0  0  0  0  0  0  0  0  0
   19.1200   16.3020    5.1590 C   0  0  2  0  0  0  0  0  0  0  0  0
   19.4200   17.7990    5.3800 C   0  0  0  0  0  0  0  0  0  0  0  0
   19.6860   18.4020    4.0010 C   0  0  0  0  0  0  0  0  0  0  0  0
   19.8670   17.2090    3.0770 C   0  0  1  0  0  0  0  0  0  0  0  0
   18.8900   16.1820    3.6500 C   0  0  1  0  0  0  0  0  0  0  0  0
   19.1990   14.8840    3.1660 O   0  0  0  0  0  0  0  0  0  0  0  0
   19.5440   17.5220    1.7310 O   0  0  0  0  0  0  0  0  0  0  0  0
   14.6110   15.7745    6.0438 H   0  0  0  0  0  0  0  0  0  0  0  0
   15.8984   14.4805    5.9786 H   0  0  0  0  0  0  0  0  0  0  0  0
   14.0368   14.9319    4.0269 H   0  0  0  0  0  0  0  0  0  0  0  0
   15.4693   15.9041    3.4501 H   0  0  0  0  0  0  0  0  0  0  0  0
   16.6768   14.0795    2.9489 H   0  0  0  0  0  0  0  0  0  0  0  0
   16.1105   13.1856    4.4155 H   0  0  0  0  0  0  0  0  0  0  0  0
   14.4616   13.6199    1.8846 H   0  0  0  0  0  0  0  0  0  0  0  0
   15.4039   12.1139    2.3095 H   0  0  0  0  0  0  0  0  0  0  0  0
   13.8149   11.3496    3.6359 H   0  0  0  0  0  0  0  0  0  0  0  0
   13.5929   13.0144    4.3997 H   0  0  0  0  0  0  0  0  0  0  0  0
   12.4466   12.9070    1.7618 H   0  0  0  0  0  0  0  0  0  0  0  0
   11.7810   11.6078    2.8904 H   0  0  0  0  0  0  0  0  0  0  0  0
   11.4431   14.5600    2.9391 H   0  0  0  0  0  0  0  0  0  0  0  0
   10.3134   13.1758    3.3601 H   0  0  0  0  0  0  0  0  0  0  0  0
   12.2661   13.0466    5.2951 H   0  0  0  0  0  0  0  0  0  0  0  0
   11.9491   14.8458    5.0361 H   0  0  0  0  0  0  0  0  0  0  0  0
   16.7167   16.9718    4.6679 H   0  0  0  0  0  0  0  0  0  0  0  0
   16.3231   17.1825    6.4191 H   0  0  0  0  0  0  0  0  0  0  0  0
   18.1590   16.0734    7.0718 H   0  0  0  0  0  0  0  0  0  0  0  0
   17.8437   14.7413    5.8623 H   0  0  0  0  0  0  0  0  0  0  0  0
   19.9403   15.6417    5.4771 H   0  0  0  0  0  0  0  0  0  0  0  0
   18.5569   18.2933    5.8498 H   0  0  0  0  0  0  0  0  0  0  0  0
   20.2856   17.9350    6.0449 H   0  0  0  0  0  0  0  0  0  0  0  0
   18.8329   19.0160    3.6767 H   0  0  0  0  0  0  0  0  0  0  0  0
   20.5668   19.0609    4.0016 H   0  0  0  0  0  0  0  0  0  0  0  0
   20.9083   16.8564    3.0408 H   0  0  0  0  0  0  0  0  0  0  0  0
   17.8404   16.3534    3.3688 H   0  0  0  0  0  0  0  0  0  0  0  0
   19.3446   14.2726    3.9309 H   0  0  0  0  0  0  0  0  0  0  0  0
   18.8332   18.2108    1.7138 H   0  0  0  0  0  0  0  0  0  0  0  0
  2  1  1  0
  3  2  1  0
  4  3  1  0
  5  4  1  0
  6  5  1  0
  7  6  1  0
  8  7  1  0
 10  9  1  0
 10  8  1  0
 11 10  2  0
 12  1  1  0
 13 12  1  0
 14 13  1  0
 15 14  1  0
 16 15  1  0
 17 16  1  0
 18 14  1  0
 18 17  1  0
 19 18  1  0
 20 17  1  0
  1 21  1  0
  1 22  1  0
  2 23  1  0
  2 24  1  0
  3 25  1  0
  3 26  1  0
  4 27  1  0
  4 28  1  0
  5 29  1  0
  5 30  1  0
  6 31  1  0
  6 32  1  0
  7 33  1  0
  7 34  1  0
  8 35  1  0
  8 36  1  0
 12 37  1  0
 12 38  1  0
 13 39  1  0
 13 40  1  0
 14 41  1  1
 15 42  1  0
 15 43  1  0
 16 44  1  0
 16 45  1  0
 17 46  1  6
 18 47  1  1
 19 48  1  0
 20 49  1  0
M  CHG  1   9  -1
M  END
$$$$
=
     RDKit          3D

 29 30  0  0  0  0  0  0  0  0999 V2000
   30.8420   24.4200   15.9820 C   0  0  0  0  0  0  0  0  0  0  0  0
   29.9200   25.4820   15.4380 C   0  0  0  0  0  0  0  0  0  0  0  0
   29.7240   25.5140   14.1580 N   0  0  0  0  0  0  0  0  0  0  0  0
   28.8710   26.4950   13.6760 N   0  0  0  0  0  0  0  0  0  0  0  0
   28.2240   27.4480   14.4730 C   0  0  0  0  0  0  0  0  0  0  0  0
   27.5010   28.3260   14.0050 O   0  0  0  0  0  0  0  0  0  0  0  0
   28.4940   27.3440   15.9120 C   0  0  0  0  0  0  0  0  0  0  0  0
   29.3090   26.4070   16.4040 C   0  0  0  0  0  0  0  0  0  0  0  0
   27.8670   28.2820   16.9060 C   0  0  0  0  0  0  0  0  0  0  0  0
   28.5910   29.2680   17.2360 O   0  0  0  0  0  0  0  0  0  0  0  0
   26.7600   27.9090   17.3870 O   0  0  0  0  0  1  0  0  0  0  0  0
   28.6420   26.5000   12.2390 C   0  0  0  0  0  0  0  0  0  0  0  0
   27.7230   25.3850   11.7910 C   0  0  0  0  0  0  0  0  0  0  0  0
   28.2420   24.1460   11.3920 C   0  0  0  0  0  0  0  0  0  0  0  0
   27.3900   23.1170   10.9880 C   0  0  0  0  0  0  0  0  0  0  0  0
   26.0100   23.3140   10.9880 C   0  0  0  0  0  0  0  0  0  0  0  0
   25.4810   24.5370   11.3980 C   0  0  0  0  0  0  0  0  0  0  0  0
   26.3320   25.5660   11.8000 C   0  0  0  0  0  0  0  0  0  0  0  0
   30.8209   24.4443   17.0815 H   0  0  0  0  0  0  0  0  0  0  0  0
   30.5106   23.4317   15.6307 H   0  0  0  0  0  0  0  0  0  0  0  0
   31.8670   24.6093   15.6307 H   0  0  0  0  0  0  0  0  0  0  0  0
   29.5136   26.3309   17.4821 H   0  0  0  0  0  0  0  0  0  0  0  0
   28.1904   27.4628   11.9579 H   0  0  0  0  0  0  0  0  0  0  0  0
   29.6139   26.3478   11.7469 H   0  0  0  0  0  0  0  0  0  0  0  0
   29.3299   23.9831   11.3972 H   0  0  0  0  0  0  0  0  0  0  0  0
   27.8075   22.1504   10.6696 H   0  0  0  0  0  0  0  0  0  0  0  0
   25.3387   22.5048   10.6646 H   0  0  0  0  0  0  0  0  0  0  0  0
   24.3918   24.6904   11.4044 H   0  0  0  0  0  0  0  0  0  0  0  0
   25.9091   26.5274   12.1268 H   0  0  0  0  0  0  0  0  0  0  0  0
  2  1  1  0
  3  2  2  0
  4  3  1  0
  5  4  1  0
  6  5  2  0
  7  5  1  0
  8  2  1  0
  8  7  2  0
  9  7  1  0
 10  9  2  0
 11  9  1  0
 12  4  1  0
 13 12  1  0
 14 13  2  0
 15 14  1  0
 16 15  2  0
 17 16  1  0
 18 17  2  0
 18 13  1  0
  1 19  1  0
  1 20  1  0
  1 21  1  0
  8 22  1  0
 12 23  1  0
 12 24  1  0
 14 25  1  0
 15 26  1  0
 16 27  1  0
 17 28  1  0
 18 29  1  0
M  CHG  1  11  -1
M  END
$$$$
=
     RDKit          3D

 28 29  0  0  0  0  0  0  0  0999 V2000
   16.9410   15.5870    4.3630 C   0  0  0  0  0  0  0  0  0  0  0  0
   15.8940   14.6000    3.8910 C   0  0  0  0  0  0  0  0  0  0  0  0
   16.2630   13.4920    3.1180 C   0  0  0  0  0  0  0  0  0  0  0  0
   15.3040   12.5710    2.6960 C   0  0  0  0  0  0  0  0  0  0  0  0
   13.9670   12.7440    3.0520 C   0  0  0  0  0  0  0  0  0  0  0  0
   13.5760   13.8340    3.8460 C   0  0  0  0  0  0  0  0  0  0  0  0
   14.5490   14.7590    4.2560 C   0  0  0  0  0  0  0  0  0  0  0  0
   12.1300   14.0270    4.2240 C   0  0  0  0  0  0  0  0  0  0  0  0
   11.8110   15.3180    4.5190 F   0  0  0  0  0  0  0  0  0  0  0  0
   11.7620   13.3020    5.3210 F   0  0  0  0  0  0  0  0  0  0  0  0
   11.2750   13.6470    3.2330 F   0  0  0  0  0  0  0  0  0  0  0  0
   18.2320   14.9950    4.1920 O   0  0  0  0  0  0  0  0  0  0  0  0
   20.2250   16.1400    5.0020 C   0  0  0  0  0  0  0  0  0  0  0  0
   21.2340   17.4430    4.5060 S   0  0  0  0  0  0  0  0  0  0  0  0
   20.3000   17.7240    3.1040 C   0  0  0  0  0  0  0  0  0  0  0  0
   19.2440   16.8500    3.0070 C   0  0  0  0  0  0  0  0  0  0  0  0
   19.2160   15.9190    4.0850 C   0  0  0  0  0  0  0  0  0  0  0  0
   21.4040   15.7950    7.1130 O   0  0  0  0  0  1  0  0  0  0  0  0
   20.4890   15.3440    6.3540 C   0  0  0  0  0  0  0  0  0  0  0  0
   19.7910   14.3060    6.5710 O   0  0  0  0  0  0  0  0  0  0  0  0
   16.8747   16.5107    3.7693 H   0  0  0  0  0  0  0  0  0  0  0  0
   16.7765   15.8335    5.4223 H   0  0  0  0  0  0  0  0  0  0  0  0
   17.3177   13.3468    2.8413 H   0  0  0  0  0  0  0  0  0  0  0  0
   15.6026   11.7083    2.0824 H   0  0  0  0  0  0  0  0  0  0  0  0
   13.2127   12.0209    2.7081 H   0  0  0  0  0  0  0  0  0  0  0  0
   14.2525   15.6206    4.8722 H   0  0  0  0  0  0  0  0  0  0  0  0
   20.5177   18.5107    2.3667 H   0  0  0  0  0  0  0  0  0  0  0  0
   18.5059   16.8672    2.1916 H   0  0  0  0  0  0  0  0  0  0  0  0
  2  1  1  0
  3  2  2  0
  4  3  1  0
  5  4  2  0
  6  5  1  0
  7  6  2  0
  7  2  1  0
  8  6  1  0
  9  8  1  0
 10  8  1  0
 11  8  1  0
 12  1  1  0
 14 13  1  0
 15 14  1  0
 16 15  2  0
 17 13  2  0
 17 12  1  0
 17 16  1  0
 19 13  1  0
 19 18  1  0
 20 19  2  0
  1 21  1  0
  1 22  1  0
  3 23  1  0
  4 24  1  0
  5 25  1  0
  7 26  1  0
 15 27  1  0
 16 28  1  0
M  CHG  1  18  -1
M  END
$$$$
=
     RDKit          3D

 25 26  0  0  0  0  0  0  0  0999 V2000
   16.5070   14.8540    3.7710 C   0  0  1  0  0  0  0  0  0  0  0  0
   17.2510   13.6430    3.4030 O   0  0  0  0  0  0  0  0  0  0  0  0
   16.5730   12.8070    2.4650 C   0  0  0  0  0  0  0  0  0  0  0  0
   15.3480   12.1710    3.1300 C   0  0  0  0  0  0  0  0  0  0  0  0
   14.5120   13.2790    3.6750 C   0  0  0  0  0  0  0  0  0  0  0  0
   15.0220   14.5290    3.9720 C   0  0  0  0  0  0  0  0  0  0  0  0
   13.9550   15.4200    4.3170 C   0  0  0  0  0  0  0  0  0  0  0  0
   12.7320   14.7870    4.3770 C   0  0  0  0  0  0  0  0  0  0  0  0
   12.8440   13.1350    3.9500 S   0  0  0  0  0  0  0  0  0  0  0  0
   17.2400   15.4020    5.0020 C   0  0  2  0  0  0  0  0  0  0  0  0
   16.9330   16.8290    5.4450 C   0  0  0  0  0  0  0  0  0  0  0  0
   19.0580   16.2520    3.7180 O   0  0  0  0  0  1  0  0  0  0  0  0
   18.7340   15.4630    4.6530 C   0  0  0  0  0  0  0  0  0  0  0  0
   19.4840   14.7570    5.3880 O   0  0  0  0  0  0  0  0  0  0  0  0
   16.4885   15.6298    2.9914 H   0  0  0  0  0  0  0  0  0  0  0  0
   16.2494   13.4109    1.6044 H   0  0  0  0  0  0  0  0  0  0  0  0
   17.2552   12.0140    2.1248 H   0  0  0  0  0  0  0  0  0  0  0  0
   14.7736   11.5961    2.3887 H   0  0  0  0  0  0  0  0  0  0  0  0
   15.6542   11.4840    3.9327 H   0  0  0  0  0  0  0  0  0  0  0  0
   14.0962   16.4932    4.5129 H   0  0  0  0  0  0  0  0  0  0  0  0
   11.7949   15.2856    4.6654 H   0  0  0  0  0  0  0  0  0  0  0  0
   16.9191   14.7273    5.8093 H   0  0  0  0  0  0  0  0  0  0  0  0
   16.9226   16.8776    6.5439 H   0  0  0  0  0  0  0  0  0  0  0  0
   17.7056   17.5081    5.0553 H   0  0  0  0  0  0  0  0  0  0  0  0
   15.9495   17.1303    5.0553 H   0  0  0  0  0  0  0  0  0  0  0  0
  2  1  1  0
  3  2  1  0
  4  3  1  0
  5  4  1  0
  6  5  2  0
  6  1  1  0
  7  6  1  0
  8  7  2  0
  9  8  1  0
  9  5  1  0
 10  1  1  0
 11 10  1  0
 13 12  1  0
 13 10  1  0
 14 13  2  0
  1 15  1  6
  3 16  1  0
  3 17  1  0
  4 18  1  0
  4 19  1  0
  7 20  1  0
  8 21  1  0
 10 22  1  1
 11 23  1  0
 11 24  1  0
 11 25  1  0
M  CHG  1  12  -1
M  END
$$$$
=
     RDKit          3D

 48 50  0  0  0  0  0  0  0  0999 V2000
    4.7480   15.7170    4.0470 N   0  0  0  0  0  4  0  0  0  0  0  0
    4.6970   14.2560    3.6600 C   0  0  0  0  0  0  0  0  0  0  0  0
    6.0890   13.7100    3.4190 C   0  0  0  0  0  0  0  0  0  0  0  0
    6.9950   13.9320    4.6350 C   0  0  0  0  0  0  0  0  0  0  0  0
    6.9520   15.3740    5.1600 C   0  0  0  0  0  0  0  0  0  0  0  0
    5.5370   15.8740    5.3270 C   0  0  0  0  0  0  0  0  0  0  0  0
    6.4550   13.0900    5.6840 O   0  0  0  0  0  0  0  0  0  0  0  0
    7.5110   12.2230    6.1720 C   0  0  0  0  0  0  0  0  0  0  0  0
    8.8050   12.7080    5.5620 C   0  0  1  0  0  0  0  0  0  0  0  0
    8.3370   13.4630    4.4000 N   0  0  0  0  0  0  0  0  0  0  0  0
    9.1580   14.0660    3.4620 C   0  0  0  0  0  0  0  0  0  0  0  0
    8.7590   14.8980    2.6480 O   0  0  0  0  0  0  0  0  0  0  0  0
   10.5750   13.6580    3.4060 C   0  0  0  0  0  0  0  0  0  0  0  0
   10.9290   12.4410    2.8200 C   0  0  0  0  0  0  0  0  0  0  0  0
   12.2730   12.0770    2.7540 C   0  0  0  0  0  0  0  0  0  0  0  0
   13.2540   12.9340    3.2630 C   0  0  0  0  0  0  0  0  0  0  0  0
   12.9050   14.1680    3.8390 C   0  0  0  0  0  0  0  0  0  0  0  0
   11.5510   14.5250    3.9050 C   0  0  0  0  0  0  0  0  0  0  0  0
   13.9730   15.0750    4.3940 C   0  0  0  0  0  0  0  0  0  0  0  0
   13.6410   16.3970    4.3770 F   0  0  0  0  0  0  0  0  0  0  0  0
   14.3090   14.7810    5.6790 F   0  0  0  0  0  0  0  0  0  0  0  0
   15.1380   14.9890    3.6840 F   0  0  0  0  0  0  0  0  0  0  0  0
    9.5520   13.4890    6.6740 C   0  0  0  0  0  0  0  0  0  0  0  0
    8.8180   14.2420    7.3740 O   0  0  0  0  0  0  0  0  0  0  0  0
   10.7990   13.2850    6.7530 O   0  0  0  0  0  1  0  0  0  0  0  0
    5.0080   18.0810    3.2860 C   0  0  0  0  0  0  0  0  0  0  0  0
    5.1770   16.6210    2.9060 C   0  0  0  0  0  0  0  0  0  0  0  0
    3.7930   16.0473    4.2466 H   0  0  0  0  0  0  0  0  0  0  0  0
    4.2221   13.6852    4.4716 H   0  0  0  0  0  0  0  0  0  0  0  0
    4.1167   14.1595    2.7305 H   0  0  0  0  0  0  0  0  0  0  0  0
    6.0201   12.6310    3.2163 H   0  0  0  0  0  0  0  0  0  0  0  0
    6.5255   14.2414    2.5605 H   0  0  0  0  0  0  0  0  0  0  0  0
    7.4594   15.4120    6.1353 H   0  0  0  0  0  0  0  0  0  0  0  0
    7.4551   16.0184    4.4240 H   0  0  0  0  0  0  0  0  0  0  0  0
    5.5627   16.9381    5.6046 H   0  0  0  0  0  0  0  0  0  0  0  0
    5.0478   15.2802    6.1132 H   0  0  0  0  0  0  0  0  0  0  0  0
    7.5674   12.2787    7.2691 H   0  0  0  0  0  0  0  0  0  0  0  0
    7.3166   11.1765    5.8943 H   0  0  0  0  0  0  0  0  0  0  0  0
    9.5413   11.9676    5.2161 H   0  0  0  0  0  0  0  0  0  0  0  0
   10.1536   11.7749    2.4137 H   0  0  0  0  0  0  0  0  0  0  0  0
   12.5617   11.1166    2.3020 H   0  0  0  0  0  0  0  0  0  0  0  0
   14.3124   12.6387    3.2120 H   0  0  0  0  0  0  0  0  0  0  0  0
   11.2568   15.4873    4.3494 H   0  0  0  0  0  0  0  0  0  0  0  0
    4.9970   18.1758    4.3819 H   0  0  0  0  0  0  0  0  0  0  0  0
    5.8444   18.6659    2.8757 H   0  0  0  0  0  0  0  0  0  0  0  0
    4.0601   18.4593    2.8757 H   0  0  0  0  0  0  0  0  0  0  0  0
    6.2343   16.4290    2.6711 H   0  0  0  0  0  0  0  0  0  0  0  0
    4.5468   16.4082    2.0299 H   0  0  0  0  0  0  0  0  0  0  0  0
  2  1  1  0
  3  2  1  0
  4  3  1  0
  5  4  1  0
  6  1  1  0
  6  5  1  0
  7  4  1  0
  8  7  1  0
  9  8  1  0
 10  4  1  0
 10  9  1  0
 11 10  1  0
 12 11  2  0
 13 11  1  0
 14 13  2  0
 15 14  1  0
 16 15  2  0
 17 16  1  0
 18 13  1  0
 18 17  2  0
 19 17  1  0
 20 19  1  0
 21 19  1  0
 22 19  1  0
 23  9  1  0
 24 23  2  0
 25 23  1  0
 27  1  1  0
 27 26  1  0
  1 28  1  0
  2 29  1  0
  2 30  1  0
  3 31  1  0
  3 32  1  0
  5 33  1  0
  5 34  1  0
  6 35  1  0
  6 36  1  0
  8 37  1  0
  8 38  1  0
  9 39  1  6
 14 40  1  0
 15 41  1  0
 16 42  1  0
 18 43  1  0
 26 44  1  0
 26 45  1  0
 26 46  1  0
 27 47  1  0
 27 48  1  0
M  CHG  2   1   1  25  -1
M  END
$$$$
=
     RDKit          3D

 17 18  0  0  0  0  0  0  0  0999 V2000
   19.7260   15.4510    5.2740 C   0  0  0  0  0  0  0  0  0  0  0  0
   19.6910   14.8250    4.0200 N   0  0  0  0  0  0  0  0  0  0  0  0
   18.5240   14.6220    3.4910 C   0  0  0  0  0  0  0  0  0  0  0  0
   17.3520   15.0100    4.1350 N   0  0  0  0  0  0  0  0  0  0  0  0
   17.3460   15.6260    5.3630 C   0  0  0  0  0  0  0  0  0  0  0  0
   18.6170   15.8470    5.9430 C   0  0  0  0  0  0  0  0  0  0  0  0
   16.0400   15.8750    5.7200 C   0  0  0  0  0  0  0  0  0  0  0  0
   15.2190   15.3920    4.6670 C   0  0  0  0  0  0  0  0  0  0  0  0
   16.0530   14.8630    3.7020 C   0  0  0  0  0  0  0  0  0  0  0  0
   22.0460   16.1820    5.2340 O   0  0  0  0  0  1  0  0  0  0  0  0
   21.1270   15.7330    5.9880 C   0  0  0  0  0  0  0  0  0  0  0  0
   21.1780   15.4810    7.2290 O   0  0  0  0  0  0  0  0  0  0  0  0
   18.4587   14.1309    2.5089 H   0  0  0  0  0  0  0  0  0  0  0  0
   18.7036   16.3345    6.9253 H   0  0  0  0  0  0  0  0  0  0  0  0
   15.6969   16.3576    6.6470 H   0  0  0  0  0  0  0  0  0  0  0  0
   14.1204   15.4319    4.6273 H   0  0  0  0  0  0  0  0  0  0  0  0
   15.7355   14.4046    2.7538 H   0  0  0  0  0  0  0  0  0  0  0  0
  2  1  1  0
  3  2  2  0
  4  3  1  0
  5  4  1  0
  6  5  1  0
  6  1  2  0
  7  5  2  0
  8  7  1  0
  9  8  2  0
  9  4  1  0
 11  1  1  0
 11 10  1  0
 12 11  2  0
  3 13  1  0
  6 14  1  0
  7 15  1  0
  8 16  1  0
  9 17  1  0
M  CHG  1  10  -1
M  END
$$$$
=
     RDKit          3D

 33 34  0  0  0  0  0  0  0  0999 V2000
   18.6210   14.5690    3.6530 C   0  0  0  0  0  0  0  0  0  0  0  0
   17.2000   14.9280    4.0640 C   0  0  0  0  0  0  0  0  0  0  0  0
   16.9570   16.1030    4.7990 C   0  0  0  0  0  0  0  0  0  0  0  0
   15.6650   16.4640    5.1700 C   0  0  0  0  0  0  0  0  0  0  0  0
   14.5890   15.6660    4.8040 C   0  0  0  0  0  0  0  0  0  0  0  0
   14.7830   14.5020    4.0480 C   0  0  0  0  0  0  0  0  0  0  0  0
   16.0940   14.1200    3.6590 C   0  0  0  0  0  0  0  0  0  0  0  0
   16.2190   12.9490    2.8740 C   0  0  0  0  0  0  0  0  0  0  0  0
   15.1090   12.1830    2.5050 C   0  0  0  0  0  0  0  0  0  0  0  0
   13.8380   12.5670    2.9070 C   0  0  0  0  0  0  0  0  0  0  0  0
   13.6780   13.7200    3.6730 C   0  0  0  0  0  0  0  0  0  0  0  0
   19.7830   16.3190    2.4710 O   0  0  0  0  0  0  0  0  0  0  0  0
   19.5930   15.7320    3.5340 C   0  0  0  0  0  0  0  0  0  0  0  0
   20.2150   16.0530    4.7120 N   0  0  0  0  0  0  0  0  0  0  0  0
   21.3220   17.0200    4.8320 C   0  0  1  0  0  0  0  0  0  0  0  0
   20.8090   18.4470    4.7060 C   0  0  0  0  0  0  0  0  0  0  0  0
   22.0750   16.8520    6.1950 C   0  0  0  0  0  0  0  0  0  0  0  0
   21.6420   15.9600    6.9760 O   0  0  0  0  0  0  0  0  0  0  0  0
   23.0400   17.6670    6.3470 O   0  0  0  0  0  1  0  0  0  0  0  0
   19.0219   13.8703    4.4021 H   0  0  0  0  0  0  0  0  0  0  0  0
   18.5396   14.1451    2.6412 H   0  0  0  0  0  0  0  0  0  0  0  0
   17.8019   16.7467    5.0850 H   0  0  0  0  0  0  0  0  0  0  0  0
   15.4962   17.3813    5.7531 H   0  0  0  0  0  0  0  0  0  0  0  0
   13.5720   15.9510    5.1112 H   0  0  0  0  0  0  0  0  0  0  0  0
   17.2194   12.6320    2.5443 H   0  0  0  0  0  0  0  0  0  0  0  0
   15.2435   11.2766    1.8964 H   0  0  0  0  0  0  0  0  0  0  0  0
   12.9621   11.9652    2.6229 H   0  0  0  0  0  0  0  0  0  0  0  0
   12.6690   14.0230    3.9895 H   0  0  0  0  0  0  0  0  0  0  0  0
   19.8876   15.5880    5.5708 H   0  0  0  0  0  0  0  0  0  0  0  0
   22.0268   16.8170    4.0122 H   0  0  0  0  0  0  0  0  0  0  0  0
   20.6563   18.8717    5.7092 H   0  0  0  0  0  0  0  0  0  0  0  0
   21.5451   19.0543    4.1589 H   0  0  0  0  0  0  0  0  0  0  0  0
   19.8547   18.4466    4.1589 H   0  0  0  0  0  0  0  0  0  0  0  0
  2  1  1  0
  3  2  2  0
  4  3  1  0
  5  4  2  0
  6  5  1  0
  7  6  2  0
  7  2  1  0
  8  7  1  0
  9  8  2  0
 10  9  1  0
 11 10  2  0
 11  6  1  0
 13 12  2  0
 13  1  1  0
 14 13  1  0
 15 14  1  0
 16 15  1  0
 17 15  1  0
 18 17  2  0
 19 17  1  0
  1 20  1  0
  1 21  1  0
  3 22  1  0
  4 23  1  0
  5 24  1  0
  8 25  1  0
  9 26  1  0
 10 27  1  0
 11 28  1  0
 14 29  1  0
 15 30  1  6
 16 31  1  0
 16 32  1  0
 16 33  1  0
M  CHG  1  19  -1
M  END
$$$$
=
     RDKit          3D

 39 40  0  0  0  0  0  0  0  0999 V2000
   20.5420   17.6570    3.7520 C   0  0  1  0  0  0  0  0  0  0  0  0
   19.8010   17.5570    2.4240 C   0  0  0  0  0  0  0  0  0  0  0  0
   18.7970   16.4670    2.7080 C   0  0  0  0  0  0  0  0  0  0  0  0
   19.5980   15.4550    3.5090 N   0  0  1  0  0  4  0  0  0  0  0  0
   20.7480   16.2110    4.1510 C   0  0  0  0  0  0  0  0  0  0  0  0
   21.8600   18.4140    3.6740 C   0  0  0  0  0  0  0  0  0  0  0  0
   23.5720   18.4750    5.2680 O   0  0  0  0  0  1  0  0  0  0  0  0
   22.3270   18.5800    5.1140 C   0  0  0  0  0  0  0  0  0  0  0  0
   21.4090   18.8720    5.9250 O   0  0  0  0  0  0  0  0  0  0  0  0
   18.7890   14.6500    4.4710 C   0  0  0  0  0  0  0  0  0  0  0  0
   17.6610   13.9640    3.8020 C   0  0  0  0  0  0  0  0  0  0  0  0
   17.6760   12.8430    2.9950 C   0  0  0  0  0  0  0  0  0  0  0  0
   16.4190   12.5190    2.5800 N   0  0  0  0  0  0  0  0  0  0  0  0
   15.6320   13.4330    3.0930 C   0  0  0  0  0  0  0  0  0  0  0  0
   16.3330   14.3420    3.8420 N   0  0  0  0  0  0  0  0  0  0  0  0
   15.7360   15.4840    4.5310 C   0  0  0  0  0  0  0  0  0  0  0  0
   14.2940   15.7210    4.0850 C   0  0  0  0  0  0  0  0  0  0  0  0
   15.8370   15.3420    6.0500 C   0  0  0  0  0  0  0  0  0  0  0  0
   19.9671   18.2401    4.4865 H   0  0  0  0  0  0  0  0  0  0  0  0
   19.3022   18.5045    2.1720 H   0  0  0  0  0  0  0  0  0  0  0  0
   20.4551   17.3455    1.5653 H   0  0  0  0  0  0  0  0  0  0  0  0
   17.9509   16.8536    3.2951 H   0  0  0  0  0  0  0  0  0  0  0  0
   18.3543   16.0409    1.7956 H   0  0  0  0  0  0  0  0  0  0  0  0
   19.9621   14.7260    2.8790 H   0  0  0  0  0  0  0  0  0  0  0  0
   20.7170   16.1043    5.2454 H   0  0  0  0  0  0  0  0  0  0  0  0
   21.7260   15.8287    3.8235 H   0  0  0  0  0  0  0  0  0  0  0  0
   22.5984   17.8395    3.0954 H   0  0  0  0  0  0  0  0  0  0  0  0
   21.7407   19.3854    3.1718 H   0  0  0  0  0  0  0  0  0  0  0  0
   19.4386   13.8948    4.9376 H   0  0  0  0  0  0  0  0  0  0  0  0
   18.3736   15.3349    5.2249 H   0  0  0  0  0  0  0  0  0  0  0  0
   18.5839   12.2848    2.7229 H   0  0  0  0  0  0  0  0  0  0  0  0
   14.5430   13.4664    2.9411 H   0  0  0  0  0  0  0  0  0  0  0  0
   16.3165   16.3739    4.2463 H   0  0  0  0  0  0  0  0  0  0  0  0
   13.6492   15.8270    4.9699 H   0  0  0  0  0  0  0  0  0  0  0  0
   14.2430   16.6396    3.4820 H   0  0  0  0  0  0  0  0  0  0  0  0
   13.9516   14.8671    3.4820 H   0  0  0  0  0  0  0  0  0  0  0  0
   15.2640   16.1476    6.5325 H   0  0  0  0  0  0  0  0  0  0  0  0
   15.4279   14.3676    6.3552 H   0  0  0  0  0  0  0  0  0  0  0  0
   16.8917   15.4087    6.3552 H   0  0  0  0  0  0  0  0  0  0  0  0
  2  1  1  0
  3  2  1  0
  4  3  1  0
  5  4  1  0
  5  1  1  0
  6  1  1  0
  8  7  1  0
  8  6  1  0
  9  8  2  0
 10  4  1  0
 11 10  1  0
 12 11  2  0
 13 12  1  0
 14 13  2  0
 15 14  1  0
 15 11  1  0
 16 15  1  0
 17 16  1  0
 18 16  1  0
  1 19  1  1
  2 20  1  0
  2 21  1  0
  3 22  1  0
  3 23  1  0
  4 24  1  6
  5 25  1  0
  5 26  1  0
  6 27  1  0
  6 28  1  0
 10 29  1  0
 10 30  1  0
 12 31  1  0
 14 32  1  0
 16 33  1  0
 17 34  1  0
 17 35  1  0
 17 36  1  0
 18 37  1  0
 18 38  1  0
 18 39  1  0
M  CHG  2   4   1   7  -1
M  END
$$$$
=
     RDKit          3D

 40 41  0  0  0  0  0  0  0  0999 V2000
   29.2810   29.6460   14.7540 O   0  0  0  0  0  0  0  0  0  0  0  0
   28.9360   28.4880   14.9840 C   0  0  0  0  0  0  0  0  0  0  0  0
   29.6670   27.2880   14.4510 C   0  0  2  0  0  0  0  0  0  0  0  0
   28.6880   26.4590   13.6200 C   0  0  0  0  0  0  0  0  0  0  0  0
   27.2790   26.8520   13.7450 N   0  0  0  0  0  0  0  0  0  0  0  0
   26.7790   27.3130   15.0400 C   0  0  0  0  0  0  0  0  0  0  0  0
   27.7700   28.1340   15.8660 C   0  0  1  0  0  0  0  0  0  0  0  0
   28.3390   27.4070   17.0940 C   0  0  0  0  0  0  0  0  0  0  0  0
   29.2560   26.2100   16.7700 C   0  0  2  0  0  0  0  0  0  0  0  0
   30.2690   26.5570   15.6600 C   0  0  0  0  0  0  0  0  0  0  0  0
   26.3320   26.3690   12.8460 C   0  0  0  0  0  0  0  0  0  0  0  0
   25.1240   26.5290   12.9750 O   0  0  0  0  0  0  0  0  0  0  0  0
   28.5310   24.8550   16.5950 C   0  0  0  0  0  0  0  0  0  0  0  0
   29.1630   23.9850   15.9360 O   0  0  0  0  0  0  0  0  0  0  0  0
   27.3990   24.7750   17.1420 O   0  0  0  0  0  1  0  0  0  0  0  0
   26.9040   25.7220   11.7940 O   0  0  0  0  0  0  0  0  0  0  0  0
   26.6660   24.3140   11.5600 C   0  0  0  0  0  0  0  0  0  0  0  0
   27.9690   23.8000   10.9310 C   0  0  0  0  0  0  0  0  0  0  0  0
   26.4280   23.5600   12.8740 C   0  0  0  0  0  0  0  0  0  0  0  0
   25.5240   24.0990   10.5600 C   0  0  0  0  0  0  0  0  0  0  0  0
   30.4980   27.5366   13.7745 H   0  0  0  0  0  0  0  0  0  0  0  0
   28.9753   26.5513   12.5622 H   0  0  0  0  0  0  0  0  0  0  0  0
   28.7549   25.4300   14.0031 H   0  0  0  0  0  0  0  0  0  0  0  0
   25.8894   27.9344   14.8597 H   0  0  0  0  0  0  0  0  0  0  0  0
   26.5702   26.4063   15.6268 H   0  0  0  0  0  0  0  0  0  0  0  0
   27.2100   29.0062   16.2343 H   0  0  0  0  0  0  0  0  0  0  0  0
   28.9190   28.1328   17.6829 H   0  0  0  0  0  0  0  0  0  0  0  0
   27.4756   26.9970   17.6385 H   0  0  0  0  0  0  0  0  0  0  0  0
   29.8489   26.0276   17.6784 H   0  0  0  0  0  0  0  0  0  0  0  0
   31.0489   27.1989   16.0956 H   0  0  0  0  0  0  0  0  0  0  0  0
   30.6588   25.5998   15.2833 H   0  0  0  0  0  0  0  0  0  0  0  0
   28.6754   23.5214   11.7269 H   0  0  0  0  0  0  0  0  0  0  0  0
   27.7530   22.9197   10.3078 H   0  0  0  0  0  0  0  0  0  0  0  0
   28.4121   24.5907   10.3078 H   0  0  0  0  0  0  0  0  0  0  0  0
   26.6386   24.2271   13.7229 H   0  0  0  0  0  0  0  0  0  0  0  0
   25.3809   23.2264   12.9208 H   0  0  0  0  0  0  0  0  0  0  0  0
   27.0938   22.6857   12.9208 H   0  0  0  0  0  0  0  0  0  0  0  0
   24.5861   23.9224   11.1069 H   0  0  0  0  0  0  0  0  0  0  0  0
   25.4171   24.9928    9.9278 H   0  0  0  0  0  0  0  0  0  0  0  0
   25.7494   23.2275    9.9278 H   0  0  0  0  0  0  0  0  0  0  0  0
  2  1  2  0
  3  2  1  0
  4  3  1  0
  5  4  1  0
  6  5  1  0
  7  6  1  0
  7  2  1  0
  8  7  1  0
  9  8  1  0
 10  9  1  0
 10  3  1  0
 11  5  1  0
 12 11  2  0
 13  9  1  0
 14 13  2  0
 15 13  1  0
 16 11  1  0
 17 16  1  0
 18 17  1  0
 19 17  1  0
 20 17  1  0
  3 21  1  6
  4 22  1  0
  4 23  1  0
  6 24  1  0
  6 25  1  0
  7 26  1  1
  8 27  1  0
  8 28  1  0
  9 29  1  1
 10 30  1  0
 10 31  1  0
 18 32  1  0
 18 33  1  0
 18 34  1  0
 19 35  1  0
 19 36  1  0
 19 37  1  0
 20 38  1  0
 20 39  1  0
 20 40  1  0
M  CHG  1  15  -1
M  END
$$$$
=
     RDKit          3D

 35 36  0  0  0  0  0  0  0  0999 V2000
   16.1350   15.5590    6.1430 O   0  0  0  0  0  0  0  0  0  0  0  0
   16.4580   15.6750    4.9570 C   0  0  0  0  0  0  0  0  0  0  0  0
   15.7680   15.0360    3.9490 N   0  0  0  0  0  0  0  0  0  0  0  0
   17.5460   16.6720    4.5220 C   0  0  1  0  0  0  0  0  0  0  0  0
   18.1980   17.2830    5.7780 C   0  0  0  0  0  0  0  0  0  0  0  0
   19.2980   18.2530    5.4640 C   0  0  0  0  0  0  0  0  0  0  0  0
   19.8990   18.3050    4.2670 C   0  0  0  0  0  0  0  0  0  0  0  0
   19.5660   17.3690    3.1390 C   0  0  0  0  0  0  0  0  0  0  0  0
   18.6010   16.2270    3.4930 C   0  0  1  0  0  0  0  0  0  0  0  0
   19.3220   14.9490    3.9430 C   0  0  0  0  0  0  0  0  0  0  0  0
   20.3000   15.0640    4.7220 O   0  0  0  0  0  0  0  0  0  0  0  0
   18.8230   13.8960    3.4370 O   0  0  0  0  0  1  0  0  0  0  0  0
   14.7640   14.0440    4.2680 C   0  0  0  0  0  0  0  0  0  0  0  0
   13.3440   14.6240    4.3900 C   0  0  0  0  0  0  0  0  0  0  0  0
   12.4320   13.7070    3.5760 C   0  0  0  0  0  0  0  0  0  0  0  0
   13.2440   12.4450    3.3410 C   0  0  0  0  0  0  0  0  0  0  0  0
   14.6560   12.9770    3.1780 C   0  0  0  0  0  0  0  0  0  0  0  0
   15.9679   15.2656    2.9650 H   0  0  0  0  0  0  0  0  0  0  0  0
   16.9934   17.4170    3.9307 H   0  0  0  0  0  0  0  0  0  0  0  0
   17.4220   17.8095    6.3530 H   0  0  0  0  0  0  0  0  0  0  0  0
   18.6464   16.4554    6.3473 H   0  0  0  0  0  0  0  0  0  0  0  0
   19.6252   18.9509    6.2488 H   0  0  0  0  0  0  0  0  0  0  0  0
   20.6729   19.0692    4.1023 H   0  0  0  0  0  0  0  0  0  0  0  0
   19.1103   17.9601    2.3309 H   0  0  0  0  0  0  0  0  0  0  0  0
   20.5135   16.8879    2.8548 H   0  0  0  0  0  0  0  0  0  0  0  0
   18.0752   15.9725    2.5609 H   0  0  0  0  0  0  0  0  0  0  0  0
   15.1018   13.6329    5.2307 H   0  0  0  0  0  0  0  0  0  0  0  0
   13.0277   14.6374    5.4435 H   0  0  0  0  0  0  0  0  0  0  0  0
   13.3027   15.6588    4.0192 H   0  0  0  0  0  0  0  0  0  0  0  0
   11.5151   13.4767    4.1384 H   0  0  0  0  0  0  0  0  0  0  0  0
   12.1157   14.1743    2.6318 H   0  0  0  0  0  0  0  0  0  0  0  0
   13.1746   11.7635    4.2017 H   0  0  0  0  0  0  0  0  0  0  0  0
   12.8974   11.8597    2.4766 H   0  0  0  0  0  0  0  0  0  0  0  0
   15.3971   12.1792    3.3340 H   0  0  0  0  0  0  0  0  0  0  0  0
   14.8508   13.3729    2.1704 H   0  0  0  0  0  0  0  0  0  0  0  0
  2  1  2  0
  3  2  1  0
  4  2  1  0
  5  4  1  0
  6  5  1  0
  7  6  2  0
  8  7  1  0
  9  8  1  0
  9  4  1  0
 10  9  1  0
 11 10  2  0
 12 10  1  0
 13  3  1  0
 14 13  1  0
 15 14  1  0
 16 15  1  0
 17 16  1  0
 17 13  1  0
  3 18  1  0
  4 19  1  6
  5 20  1  0
  5 21  1  0
  6 22  1  0
  7 23  1  0
  8 24  1  0
  8 25  1  0
  9 26  1  6
 13 27  1  0
 14 28  1  0
 14 29  1  0
 15 30  1  0
 15 31  1  0
 16 32  1  0
 16 33  1  0
 17 34  1  0
 17 35  1  0
M  CHG  1  12  -1
M  END
$$$$
=
     RDKit          3D

 18 18  0  0  0  0  0  0  0  0999 V2000
   18.9490   16.2580    5.2070 O   0  0  0  0  0  0  0  0  0  0  0  0
   17.6830   15.8050    4.9770 C   0  0  0  0  0  0  0  0  0  0  0  0
   16.8370   15.8540    6.0900 C   0  0  0  0  0  0  0  0  0  0  0  0
   15.5120   15.4220    6.0030 C   0  0  0  0  0  0  0  0  0  0  0  0
   15.0210   14.9350    4.7950 C   0  0  0  0  0  0  0  0  0  0  0  0
   15.8550   14.8820    3.6800 C   0  0  0  0  0  0  0  0  0  0  0  0
   17.1820   15.3160    3.7710 C   0  0  0  0  0  0  0  0  0  0  0  0
   20.0190   15.3010    5.2580 C   0  0  0  0  0  0  0  0  0  0  0  0
   19.5610   14.1300    5.7920 F   0  0  0  0  0  0  0  0  0  0  0  0
   20.4480   15.0270    3.9890 F   0  0  0  0  0  0  0  0  0  0  0  0
   22.0660   16.5910    5.5190 O   0  0  0  0  0  1  0  0  0  0  0  0
   21.2120   15.8650    6.1240 C   0  0  0  0  0  0  0  0  0  0  0  0
   21.2150   15.5560    7.3620 O   0  0  0  0  0  0  0  0  0  0  0  0
   17.2207   16.2380    7.0467 H   0  0  0  0  0  0  0  0  0  0  0  0
   14.8582   15.4664    6.8865 H   0  0  0  0  0  0  0  0  0  0  0  0
   13.9781   14.5931    4.7208 H   0  0  0  0  0  0  0  0  0  0  0  0
   15.4686   14.4975    2.7246 H   0  0  0  0  0  0  0  0  0  0  0  0
   17.8339   15.2712    2.8861 H   0  0  0  0  0  0  0  0  0  0  0  0
  2  1  1  0
  3  2  2  0
  4  3  1  0
  5  4  2  0
  6  5  1  0
  7  6  2  0
  7  2  1  0
  8  1  1  0
  9  8  1  0
 10  8  1  0
 12  8  1  0
 12 11  1  0
 13 12  2  0
  3 14  1  0
  4 15  1  0
  5 16  1  0
  6 17  1  0
  7 18  1  0
M  CHG  1  11  -1
M  END
$$$$
=
     RDKit          3D

 23 23  0  0  0  0  0  0  0  0999 V2000
   16.5350   14.4340    3.8710 C   0  0  0  0  0  0  0  0  0  0  0  0
   16.2380   13.2890    3.1460 C   0  0  0  0  0  0  0  0  0  0  0  0
   14.9050   12.7560    2.7830 C   0  0  0  0  0  0  0  0  0  0  0  0
   17.4950   12.7340    2.8380 C   0  0  0  0  0  0  0  0  0  0  0  0
   18.5070   13.4460    3.3300 N   0  0  0  0  0  0  0  0  0  0  0  0
   17.9060   14.5220    3.8950 N   0  0  0  0  0  0  0  0  0  0  0  0
   15.0270   14.8910    5.6030 F   0  0  0  0  0  0  0  0  0  0  0  0
   15.6520   15.4360    4.5200 C   0  0  0  0  0  0  0  0  0  0  0  0
   14.6320   15.7900    3.6770 F   0  0  0  0  0  0  0  0  0  0  0  0
   18.7520   15.5250    4.5270 C   0  0  0  0  0  0  0  0  0  0  0  0
   19.2540   15.1230    5.9030 C   0  0  0  0  0  0  0  0  0  0  0  0
   20.7490   15.3310    6.0790 C   0  0  0  0  0  0  0  0  0  0  0  0
   21.1270   15.4510    7.2770 O   0  0  0  0  0  0  0  0  0  0  0  0
   21.4320   15.3870    5.0200 O   0  0  0  0  0  1  0  0  0  0  0  0
   14.3389   12.5296    3.6986 H   0  0  0  0  0  0  0  0  0  0  0  0
   14.3595   13.5052    2.1904 H   0  0  0  0  0  0  0  0  0  0  0  0
   15.0264   11.8373    2.1904 H   0  0  0  0  0  0  0  0  0  0  0  0
   17.6268   11.8114    2.2537 H   0  0  0  0  0  0  0  0  0  0  0  0
   16.2892   16.2908    4.7908 H   0  0  0  0  0  0  0  0  0  0  0  0
   19.6224   15.7034    3.8785 H   0  0  0  0  0  0  0  0  0  0  0  0
   18.1358   16.4263    4.6609 H   0  0  0  0  0  0  0  0  0  0  0  0
   18.7261   15.7248    6.6574 H   0  0  0  0  0  0  0  0  0  0  0  0
   19.0574   14.0472    6.0213 H   0  0  0  0  0  0  0  0  0  0  0  0
  2  1  2  0
  3  2  1  0
  4  2  1  0
  5  4  2  0
  6  5  1  0
  6  1  1  0
  8  7  1  0
  8  1  1  0
  9  8  1  0
 10  6  1  0
 11 10  1  0
 12 11  1  0
 13 12  2  0
 14 12  1  0
  3 15  1  0
  3 16  1  0
  3 17  1  0
  4 18  1  0
  8 19  1  0
 10 20  1  0
 10 21  1  0
 11 22  1  0
 11 23  1  0
M  CHG  1  14  -1
M  END
$$$$
=
     RDKit          3D

 39 40  0  0  0  0  0  0  0  0999 V2000
   30.8510   26.2690   15.1960 O   0  0  0  0  0  0  0  0  0  0  0  0
   29.8790   26.6410   14.5500 C   0  0  0  0  0  0  0  0  0  0  0  0
   29.1830   25.8380   13.6940 N   0  0  0  0  0  0  0  0  0  0  0  0
   27.8010   25.9750   13.2500 C   0  0  0  0  0  0  0  0  0  0  0  0
   27.8780   24.4880   12.8060 C   0  0  0  0  0  0  0  0  0  0  0  0
   29.1410   24.3850   13.7090 C   0  0  0  0  0  0  0  0  0  0  0  0
   28.1790   24.2850   11.3090 C   0  0  0  0  0  0  0  0  0  0  0  0
   27.8300   22.8580   10.9040 C   0  0  0  0  0  0  0  0  0  0  0  0
   26.3480   22.5420   11.1510 C   0  0  0  0  0  0  0  0  0  0  0  0
   25.7380   23.3930   12.2680 C   0  0  1  0  0  0  0  0  0  0  0  0
   26.7830   23.6330   13.2470 O   0  0  0  0  0  0  0  0  0  0  0  0
   25.0230   24.7190   11.8430 C   0  0  0  0  0  0  0  0  0  0  0  0
   24.4690   25.3670   12.7790 O   0  0  0  0  0  0  0  0  0  0  0  0
   25.0770   25.0090   10.6130 O   0  0  0  0  0  1  0  0  0  0  0  0
   29.3620   27.8960   14.5690 O   0  0  0  0  0  0  0  0  0  0  0  0
   29.1610   28.6050   15.8150 C   0  0  0  0  0  0  0  0  0  0  0  0
   28.0770   29.6470   15.5000 C   0  0  0  0  0  0  0  0  0  0  0  0
   28.6350   27.6700   16.9110 C   0  0  0  0  0  0  0  0  0  0  0  0
   30.4340   29.3390   16.2510 C   0  0  0  0  0  0  0  0  0  0  0  0
   27.0776   26.1785   14.0533 H   0  0  0  0  0  0  0  0  0  0  0  0
   27.4880   26.7726   12.5601 H   0  0  0  0  0  0  0  0  0  0  0  0
   28.9633   23.9403   14.6993 H   0  0  0  0  0  0  0  0  0  0  0  0
   30.0112   23.7755   13.4237 H   0  0  0  0  0  0  0  0  0  0  0  0
   27.5784   24.9906   10.7163 H   0  0  0  0  0  0  0  0  0  0  0  0
   29.2484   24.4648   11.1247 H   0  0  0  0  0  0  0  0  0  0  0  0
   28.0483   22.7280    9.8337 H   0  0  0  0  0  0  0  0  0  0  0  0
   28.4329   22.1714   11.5164 H   0  0  0  0  0  0  0  0  0  0  0  0
   25.7893   22.7286   10.2220 H   0  0  0  0  0  0  0  0  0  0  0  0
   26.2814   21.4892   11.4628 H   0  0  0  0  0  0  0  0  0  0  0  0
   24.8994   22.8141   12.6824 H   0  0  0  0  0  0  0  0  0  0  0  0
   27.6650   30.0431   16.4399 H   0  0  0  0  0  0  0  0  0  0  0  0
   28.5173   30.4695   14.9173 H   0  0  0  0  0  0  0  0  0  0  0  0
   27.2725   29.1745   14.9173 H   0  0  0  0  0  0  0  0  0  0  0  0
   28.8726   28.0924   17.8985 H   0  0  0  0  0  0  0  0  0  0  0  0
   27.5448   27.5639   16.8103 H   0  0  0  0  0  0  0  0  0  0  0  0
   29.1103   26.6831   16.8103 H   0  0  0  0  0  0  0  0  0  0  0  0
   30.4830   29.3672   17.3495 H   0  0  0  0  0  0  0  0  0  0  0  0
   31.3149   28.8102   15.8582 H   0  0  0  0  0  0  0  0  0  0  0  0
   30.4177   30.3663   15.8582 H   0  0  0  0  0  0  0  0  0  0  0  0
  2  1  2  0
  3  2  1  0
  4  3  1  0
  5  4  1  0
  6  5  1  0
  6  3  1  0
  7  5  1  0
  8  7  1  0
  9  8  1  0
 10  9  1  0
 11 10  1  0
 11  5  1  0
 12 10  1  0
 13 12  2  0
 14 12  1  0
 15  2  1  0
 16 15  1  0
 17 16  1  0
 18 16  1  0
 19 16  1  0
  4 20  1  0
  4 21  1  0
  6 22  1  0
  6 23  1  0
  7 24  1  0
  7 25  1  0
  8 26  1  0
  8 27  1  0
  9 28  1  0
  9 29  1  0
 10 30  1  1
 17 31  1  0
 17 32  1  0
 17 33  1  0
 18 34  1  0
 18 35  1  0
 18 36  1  0
 19 37  1  0
 19 38  1  0
 19 39  1  0
M  CHG  1  14  -1
M  END
$$$$
=
     RDKit          3D

 19 18  0  0  0  0  0  0  0  0999 V2000
   20.7630   15.9940    5.0090 C   0  0  2  0  0  0  0  0  0  0  0  0
   19.5270   14.6960    5.3120 Cl  0  0  0  0  0  0  0  0  0  0  0  0
   21.5140   16.1820    6.3510 C   0  0  0  0  0  0  0  0  0  0  0  0
   21.0820   15.4690    7.3070 O   0  0  0  0  0  0  0  0  0  0  0  0
   22.4860   16.9920    6.3440 O   0  0  0  0  0  1  0  0  0  0  0  0
   20.1210   17.2740    4.4200 C   0  0  2  0  0  0  0  0  0  0  0  0
   19.2120   17.9950    5.4350 C   0  0  0  0  0  0  0  0  0  0  0  0
   19.8020   17.5010    1.8480 C   0  0  0  0  0  0  0  0  0  0  0  0
   19.2540   16.9800    3.1670 C   0  0  0  0  0  0  0  0  0  0  0  0
   21.4896   15.7153    4.2316 H   0  0  0  0  0  0  0  0  0  0  0  0
   20.9753   17.9125    4.1506 H   0  0  0  0  0  0  0  0  0  0  0  0
   19.5308   17.7421    6.4570 H   0  0  0  0  0  0  0  0  0  0  0  0
   19.2864   19.0823    5.2861 H   0  0  0  0  0  0  0  0  0  0  0  0
   18.1702   17.6750    5.2861 H   0  0  0  0  0  0  0  0  0  0  0  0
   20.5862   18.2466    2.0457 H   0  0  0  0  0  0  0  0  0  0  0  0
   20.2270   16.6658    1.2720 H   0  0  0  0  0  0  0  0  0  0  0  0
   18.9893   17.9676    1.2720 H   0  0  0  0  0  0  0  0  0  0  0  0
   18.2655   17.4357    3.3257 H   0  0  0  0  0  0  0  0  0  0  0  0
   19.2303   15.8846    3.0696 H   0  0  0  0  0  0  0  0  0  0  0  0
  2  1  1  0
  3  1  1  0
  4  3  2  0
  5  3  1  0
  6  1  1  0
  7  6  1  0
  9  8  1  0
  9  6  1  0
  1 10  1  6
  6 11  1  6
  7 12  1  0
  7 13  1  0
  7 14  1  0
  8 15  1  0
  8 16  1  0
  8 17  1  0
  9 18  1  0
  9 19  1  0
M  CHG  1   5  -1
M  END
$$$$
=
     RDKit          3D

 17 17  0  0  0  0  0  0  0  0999 V2000
   18.8380   15.0460    5.4570 C   0  0  0  0  0  0  0  0  0  0  0  0
   17.7490   16.1020    5.6480 C   0  0  0  0  0  0  0  0  0  0  0  0
   18.2760   17.5130    5.5930 C   0  0  0  0  0  0  0  0  0  0  0  0
   16.3600   15.8560    5.0960 C   0  0  0  0  0  0  0  0  0  0  0  0
   16.5910   15.8260    6.5830 C   0  0  0  0  0  0  0  0  0  0  0  0
   19.5030   15.2260    3.1870 O   0  0  0  0  0  1  0  0  0  0  0  0
   19.9080   15.2990    4.3850 C   0  0  0  0  0  0  0  0  0  0  0  0
   21.0750   15.5150    4.8230 O   0  0  0  0  0  0  0  0  0  0  0  0
   19.3590   14.9358    6.4195 H   0  0  0  0  0  0  0  0  0  0  0  0
   18.2981   14.1561    5.1013 H   0  0  0  0  0  0  0  0  0  0  0  0
   18.4174   17.8917    6.6160 H   0  0  0  0  0  0  0  0  0  0  0  0
   19.2390   17.5243    5.0614 H   0  0  0  0  0  0  0  0  0  0  0  0
   17.5562   18.1528    5.0614 H   0  0  0  0  0  0  0  0  0  0  0  0
   15.7935   16.6838    4.6445 H   0  0  0  0  0  0  0  0  0  0  0  0
   15.9276   15.1593    4.3628 H   0  0  0  0  0  0  0  0  0  0  0  0
   16.1929   16.6318    7.2172 H   0  0  0  0  0  0  0  0  0  0  0  0
   16.3966   15.0980    7.3844 H   0  0  0  0  0  0  0  0  0  0  0  0
  2  1  1  0
  3  2  1  0
  4  2  1  0
  5  4  1  0
  5  2  1  0
  7  6  1  0
  7  1  1  0
  8  7  2  0
  1  9  1  0
  1 10  1  0
  3 11  1  0
  3 12  1  0
  3 13  1  0
  4 14  1  0
  4 15  1  0
  5 16  1  0
  5 17  1  0
M  CHG  1   6  -1
M  END
$$$$
=
     RDKit          3D

 37 40  0  0  0  0  0  0  0  0999 V2000
    9.5980   13.1410    3.0420 C   0  0  2  0  0  0  0  0  0  0  0  0
    8.4300   12.1730    2.9210 C   0  0  0  0  0  0  0  0  0  0  0  0
    8.8650   11.1580    1.4830 S   0  0  0  0  0  0  0  0  0  0  0  0
   10.6230   11.2020    1.8630 C   0  0  0  0  0  0  0  0  0  0  0  0
   10.8670   12.4190    2.6270 N   0  0  0  0  0  0  0  0  0  0  0  0
   12.1160   12.8060    2.9700 C   0  0  0  0  0  0  0  0  0  0  0  0
   12.4670   13.9410    3.6410 N   0  0  0  0  0  4  0  0  0  0  0  0
   13.8310   13.9560    3.7940 C   0  0  0  0  0  0  0  0  0  0  0  0
   14.3060   14.9860    4.4930 C   0  0  0  0  0  0  0  0  0  0  0  0
   14.4070   12.7440    3.1380 C   0  0  0  0  0  0  0  0  0  0  0  0
   15.5360   12.3430    2.9980 O   0  0  0  0  0  0  0  0  0  0  0  0
   13.2440   12.0960    2.6500 N   0  0  0  0  0  0  0  0  0  0  0  0
   15.7230   15.1840    4.8110 C   0  0  0  0  0  0  0  0  0  0  0  0
   16.0780   15.4970    6.1420 C   0  0  0  0  0  0  0  0  0  0  0  0
   17.4130   15.7170    6.4980 C   0  0  0  0  0  0  0  0  0  0  0  0
   18.3630   15.6270    5.5060 C   0  0  0  0  0  0  0  0  0  0  0  0
   18.0240   15.3360    4.2060 C   0  0  0  0  0  0  0  0  0  0  0  0
   16.7170   15.1150    3.8250 C   0  0  0  0  0  0  0  0  0  0  0  0
   19.1060   15.3050    3.3830 O   0  0  0  0  0  0  0  0  0  0  0  0
   20.1670   15.6010    4.3160 C   0  0  0  0  0  0  0  0  0  0  0  0
   19.7000   15.8110    5.6650 O   0  0  0  0  0  0  0  0  0  0  0  0
    9.1750   12.9420    5.3360 O   0  0  0  0  0  1  0  0  0  0  0  0
    9.7190   13.6980    4.4680 C   0  0  0  0  0  0  0  0  0  0  0  0
   10.1690   14.8590    4.6020 O   0  0  0  0  0  0  0  0  0  0  0  0
    9.4285   14.0028    2.3797 H   0  0  0  0  0  0  0  0  0  0  0  0
    8.3378   11.5537    3.8254 H   0  0  0  0  0  0  0  0  0  0  0  0
    7.4621   12.6831    2.8072 H   0  0  0  0  0  0  0  0  0  0  0  0
   10.9023   10.3204    2.4586 H   0  0  0  0  0  0  0  0  0  0  0  0
   11.2228   11.1922    0.9410 H   0  0  0  0  0  0  0  0  0  0  0  0
   11.8168   14.6658    3.9768 H   0  0  0  0  0  0  0  0  0  0  0  0
   13.5880   15.7366    4.8550 H   0  0  0  0  0  0  0  0  0  0  0  0
   13.2465   11.2098    2.1250 H   0  0  0  0  0  0  0  0  0  0  0  0
   15.2934   15.5688    6.9097 H   0  0  0  0  0  0  0  0  0  0  0  0
   17.6938   15.9537    7.5349 H   0  0  0  0  0  0  0  0  0  0  0  0
   16.4622   14.8913    2.7786 H   0  0  0  0  0  0  0  0  0  0  0  0
   20.8743   14.7586    4.3188 H   0  0  0  0  0  0  0  0  0  0  0  0
   20.6389   16.5381    3.9855 H   0  0  0  0  0  0  0  0  0  0  0  0
  2  1  1  0
  3  2  1  0
  4  3  1  0
  5  4  1  0
  5  1  1  0
  6  5  1  0
  7  6  2  0
  8  7  1  0
  9  8  2  0
 10  8  1  0
 11 10  2  0
 12 10  1  0
 12  6  1  0
 13  9  1  0
 14 13  2  0
 15 14  1  0
 16 15  2  0
 17 16  1  0
 18 13  1  0
 18 17  2  0
 19 17  1  0
 20 19  1  0
 21 20  1  0
 21 16  1  0
 23 22  1  0
 23  1  1  0
 24 23  2  0
  1 25  1  6
  2 26  1  0
  2 27  1  0
  4 28  1  0
  4 29  1  0
  7 30  1  0
  9 31  1  0
 12 32  1  0
 14 33  1  0
 15 34  1  0
 18 35  1  0
 20 36  1  0
 20 37  1  0
M  CHG  2   7   1  22  -1
M  END
$$$$
=
     RDKit          3D

 68 68  0  0  0  0  0  0  0  0999 V2000
   29.0240   25.8390   14.5180 C   0  0  0  0  0  0  0  0  0  0  0  0
   29.6370   25.0700   13.7640 O   0  0  0  0  0  0  0  0  0  0  0  0
   27.8370   26.4310   14.1000 N   0  0  0  0  0  0  0  0  0  0  0  0
   27.3830   26.1340   12.7350 C   0  0  0  0  0  0  0  0  0  0  0  0
   26.7660   24.7410   12.5840 C   0  0  0  0  0  0  0  0  0  0  0  0
   26.1090   24.6410   11.3160 O   0  0  0  0  0  0  0  0  0  0  0  0
   24.8360   23.9850   11.3940 C   0  0  0  0  0  0  0  0  0  0  0  0
   23.7300   24.9990   11.7370 C   0  0  0  0  0  0  0  0  0  0  0  0
   22.8140   24.5520   12.8020 N   0  0  0  0  0  0  0  0  0  0  0  0
   23.2390   24.7670   14.2000 C   0  0  0  0  0  0  0  0  0  0  0  0
   23.3910   26.2470   14.5850 C   0  0  0  0  0  0  0  0  0  0  0  0
   24.6790   26.7720   14.2400 O   0  0  0  0  0  0  0  0  0  0  0  0
   25.6230   26.6700   15.3150 C   0  0  0  0  0  0  0  0  0  0  0  0
   26.9620   27.3050   14.9080 C   0  0  0  0  0  0  0  0  0  0  0  0
   21.7290   23.6950   12.5760 C   0  0  0  0  0  0  0  0  0  0  0  0
   21.1150   23.1840   13.5180 O   0  0  0  0  0  0  0  0  0  0  0  0
   30.0080   24.8240   16.6210 C   0  0  0  0  0  0  0  0  0  0  0  0
   29.6280   26.1200   15.9030 C   0  0  1  0  0  0  0  0  0  0  0  0
   30.6510   27.2720   15.8550 C   0  0  0  0  0  0  0  0  0  0  0  0
   30.2790   28.6000   16.5380 C   0  0  1  0  0  0  0  0  0  0  0  0
   29.7790   29.6470   15.5470 C   0  0  0  0  0  0  0  0  0  0  0  0
   29.3820   28.3910   17.7760 C   0  0  0  0  0  0  0  0  0  0  0  0
   28.2300   28.9090   17.6960 O   0  0  0  0  0  0  0  0  0  0  0  0
   29.8860   27.7210   18.7200 O   0  0  0  0  0  1  0  0  0  0  0  0
   21.2500   23.4870   11.1310 C   0  0  2  0  0  0  0  0  0  0  0  0
   20.5520   24.7660   10.6600 C   0  0  0  0  0  0  0  0  0  0  0  0
   20.3200   22.2570   11.0440 C   0  0  0  0  0  0  0  0  0  0  0  0
   18.8190   22.5720   11.1330 C   0  0  2  0  0  0  0  0  0  0  0  0
   18.1800   21.8020   12.2880 C   0  0  0  0  0  0  0  0  0  0  0  0
   17.9870   22.1980    9.8920 C   0  0  0  0  0  0  0  0  0  0  0  0
   17.9100   23.1090    9.0180 O   0  0  0  0  0  0  0  0  0  0  0  0
   17.4910   21.0370    9.8840 O   0  0  0  0  0  1  0  0  0  0  0  0
   26.6283   26.8815   12.4491 H   0  0  0  0  0  0  0  0  0  0  0  0
   28.2703   26.1660   12.0857 H   0  0  0  0  0  0  0  0  0  0  0  0
   27.5587   23.9809   12.6464 H   0  0  0  0  0  0  0  0  0  0  0  0
   26.0339   24.5769   13.3884 H   0  0  0  0  0  0  0  0  0  0  0  0
   24.6099   23.5160   10.4250 H   0  0  0  0  0  0  0  0  0  0  0  0
   24.8764   23.2203   12.1837 H   0  0  0  0  0  0  0  0  0  0  0  0
   24.2079   25.9348   12.0624 H   0  0  0  0  0  0  0  0  0  0  0  0
   23.1229   25.1261   10.8286 H   0  0  0  0  0  0  0  0  0  0  0  0
   22.4890   24.3119   14.8637 H   0  0  0  0  0  0  0  0  0  0  0  0
   24.2323   24.3064   14.3058 H   0  0  0  0  0  0  0  0  0  0  0  0
   22.6199   26.8296   14.0597 H   0  0  0  0  0  0  0  0  0  0  0  0
   23.2796   26.3226   15.6767 H   0  0  0  0  0  0  0  0  0  0  0  0
   25.2263   27.1930   16.1977 H   0  0  0  0  0  0  0  0  0  0  0  0
   25.7863   25.6078   15.5495 H   0  0  0  0  0  0  0  0  0  0  0  0
   26.7480   28.2115   14.3228 H   0  0  0  0  0  0  0  0  0  0  0  0
   27.5052   27.5123   15.8418 H   0  0  0  0  0  0  0  0  0  0  0  0
   29.9621   24.9805   17.7088 H   0  0  0  0  0  0  0  0  0  0  0  0
   29.3057   24.0270   16.3353 H   0  0  0  0  0  0  0  0  0  0  0  0
   31.0294   24.5324   16.3353 H   0  0  0  0  0  0  0  0  0  0  0  0
   28.8675   26.5343   16.5812 H   0  0  0  0  0  0  0  0  0  0  0  0
   31.5748   26.9085   16.3287 H   0  0  0  0  0  0  0  0  0  0  0  0
   30.7283   27.5253   14.7874 H   0  0  0  0  0  0  0  0  0  0  0  0
   31.2057   29.0336   16.9421 H   0  0  0  0  0  0  0  0  0  0  0  0
   29.3686   30.5064   16.0975 H   0  0  0  0  0  0  0  0  0  0  0  0
   30.6144   29.9817   14.9146 H   0  0  0  0  0  0  0  0  0  0  0  0
   28.9935   29.2076   14.9146 H   0  0  0  0  0  0  0  0  0  0  0  0
   22.1060   23.2872   10.4696 H   0  0  0  0  0  0  0  0  0  0  0  0
   20.2321   25.3523   11.5340 H   0  0  0  0  0  0  0  0  0  0  0  0
   21.2497   25.3625   10.0538 H   0  0  0  0  0  0  0  0  0  0  0  0
   19.6729   24.5020   10.0538 H   0  0  0  0  0  0  0  0  0  0  0  0
   20.5071   21.7547   10.0835 H   0  0  0  0  0  0  0  0  0  0  0  0
   20.5555   21.6304   11.9169 H   0  0  0  0  0  0  0  0  0  0  0  0
   18.7975   23.6648   11.2568 H   0  0  0  0  0  0  0  0  0  0  0  0
   18.5273   22.2204   13.2442 H   0  0  0  0  0  0  0  0  0  0  0  0
   17.0852   21.8892   12.2256 H   0  0  0  0  0  0  0  0  0  0  0  0
   18.4675   20.7421   12.2256 H   0  0  0  0  0  0  0  0  0  0  0  0
  2  1  2  0
  3  1  1  0
  4  3  1  0
  5  4  1  0
  6  5  1  0
  7  6  1  0
  8  7  1  0
  9  8  1  0
 10  9  1  0
 11 10  1  0
 12 11  1  0
 13 12  1  0
 14 13  1  0
 14  3  1  0
 15  9  1  0
 16 15  2  0
 18  1  1  0
 18 17  1  0
 19 18  1  0
 20 19  1  0
 21 20  1  0
 22 20  1  0
 23 22  2  0
 24 22  1  0
 25 15  1  0
 26 25  1  0
 27 25  1  0
 28 27  1  0
 29 28  1  0
 30 28  1  0
 31 30  2  0
 32 30  1  0
  4 33  1  0
  4 34  1  0
  5 35  1  0
  5 36  1  0
  7 37  1  0
  7 38  1  0
  8 39  1  0
  8 40  1  0
 10 41  1  0
 10 42  1  0
 11 43  1  0
 11 44  1  0
 13 45  1  0
 13 46  1  0
 14 47  1  0
 14 48  1  0
 17 49  1  0
 17 50  1  0
 17 51  1  0
 18 52  1  1
 19 53  1  0
 19 54  1  0
 20 55  1  1
 21 56  1  0
 21 57  1  0
 21 58  1  0
 25 59  1  6
 26 60  1  0
 26 61  1  0
 26 62  1  0
 27 63  1  0
 27 64  1  0
 28 65  1  1
 29 66  1  0
 29 67  1  0
 29 68  1  0
M  CHG  2  24  -1  32  -1
M  END
$$$$
=
     RDKit          3D

 21 21  0  0  0  0  0  0  0  0999 V2000
   16.4520   14.7540    3.8780 N   0  0  0  0  0  0  0  0  0  0  0  0
   17.5320   15.3920    4.5830 C   0  0  0  0  0  0  0  0  0  0  0  0
   17.5510   16.6750    4.8670 N   0  0  0  0  0  0  0  0  0  0  0  0
   18.7870   16.8530    5.4430 C   0  0  0  0  0  0  0  0  0  0  0  0
   19.4840   15.6680    5.4540 C   0  0  0  0  0  0  0  0  0  0  0  0
   18.6730   14.7170    4.8880 O   0  0  0  0  0  0  0  0  0  0  0  0
   14.9500   15.0280    4.5340 S   0  0  0  0  0  6  0  0  0  0  0  0
   15.1480   15.0190    5.9730 O   0  0  0  0  0  0  0  0  0  0  0  0
   14.3500   16.1910    3.9160 O   0  0  0  0  0  0  0  0  0  0  0  0
   14.6870   12.6400    3.1640 C   0  0  0  0  0  0  0  0  0  0  0  0
   13.9800   13.5760    4.1220 C   0  0  0  0  0  0  0  0  0  0  0  0
   20.9350   15.4740    5.9980 C   0  0  0  0  0  0  0  0  0  0  0  0
   21.8530   15.4040    5.1250 O   0  0  0  0  0  0  0  0  0  0  0  0
   21.0620   15.3970    7.2560 O   0  0  0  0  0  1  0  0  0  0  0  0
   16.5976   14.1763    3.0378 H   0  0  0  0  0  0  0  0  0  0  0  0
   19.1643   17.8076    5.8386 H   0  0  0  0  0  0  0  0  0  0  0  0
   15.2536   11.8899    3.7353 H   0  0  0  0  0  0  0  0  0  0  0  0
   13.9438   12.1338    2.5304 H   0  0  0  0  0  0  0  0  0  0  0  0
   15.3771   13.2165    2.5304 H   0  0  0  0  0  0  0  0  0  0  0  0
   13.0379   13.9045    3.6589 H   0  0  0  0  0  0  0  0  0  0  0  0
   13.8088   13.0207    5.0560 H   0  0  0  0  0  0  0  0  0  0  0  0
  2  1  1  0
  3  2  2  0
  4  3  1  0
  5  4  2  0
  6  2  1  0
  6  5  1  0
  7  1  1  0
  8  7  2  0
  9  7  2  0
 11 10  1  0
 11  7  1  0
 12  5  1  0
 13 12  2  0
 14 12  1  0
  1 15  1  0
  4 16  1  0
 10 17  1  0
 10 18  1  0
 10 19  1  0
 11 20  1  0
 11 21  1  0
M  CHG  1  14  -1
M  END
$$$$
=
     RDKit          3D

 33 34  0  0  0  0  0  0  0  0999 V2000
   29.4150   27.3530   16.2490 N   0  0  0  0  0  0  0  0  0  0  0  0
   28.6260   27.5150   17.4420 C   0  0  0  0  0  0  0  0  0  0  0  0
   29.0980   28.0130   18.4480 O   0  0  0  0  0  0  0  0  0  0  0  0
   27.2260   26.9570   17.2380 C   0  0  2  0  0  0  0  0  0  0  0  0
   27.5610   25.5930   16.0340 S   0  0  0  0  0  0  0  0  0  0  0  0
   28.9080   26.5040   15.3560 C   0  0  0  0  0  0  0  0  0  0  0  0
   29.3530   26.3950   14.1150 N   0  0  0  0  0  4  0  0  0  0  0  0
   28.9190   25.4980   13.1860 C   0  0  0  0  0  0  0  0  0  0  0  0
   28.2110   25.9820   12.0790 C   0  0  0  0  0  0  0  0  0  0  0  0
   27.7910   25.1210   11.0610 C   0  0  0  0  0  0  0  0  0  0  0  0
   28.0960   23.7650   11.1290 C   0  0  0  0  0  0  0  0  0  0  0  0
   28.8240   23.2710   12.2070 C   0  0  0  0  0  0  0  0  0  0  0  0
   29.2410   24.1360   13.2250 C   0  0  0  0  0  0  0  0  0  0  0  0
   30.0180   29.6470   15.7280 C   0  0  0  0  0  0  0  0  0  0  0  0
   30.5430   28.2630   16.0560 C   0  0  0  0  0  0  0  0  0  0  0  0
   26.2600   28.0000   16.6730 C   0  0  0  0  0  0  0  0  0  0  0  0
   24.8840   27.3580   16.5320 C   0  0  0  0  0  0  0  0  0  0  0  0
   24.5250   26.6210   17.4890 O   0  0  0  0  0  0  0  0  0  0  0  0
   24.3650   27.4720   15.3920 O   0  0  0  0  0  1  0  0  0  0  0  0
   26.7336   26.6309   18.1660 H   0  0  0  0  0  0  0  0  0  0  0  0
   30.0951   27.0476   13.8247 H   0  0  0  0  0  0  0  0  0  0  0  0
   27.9820   27.0556   12.0095 H   0  0  0  0  0  0  0  0  0  0  0  0
   27.2201   25.5149   10.2072 H   0  0  0  0  0  0  0  0  0  0  0  0
   27.7621   23.0846   10.3317 H   0  0  0  0  0  0  0  0  0  0  0  0
   29.0718   22.2005   12.2590 H   0  0  0  0  0  0  0  0  0  0  0  0
   29.8292   23.7409   14.0664 H   0  0  0  0  0  0  0  0  0  0  0  0
   29.8115   30.1915   16.6612 H   0  0  0  0  0  0  0  0  0  0  0  0
   30.7706   30.1954   15.1424 H   0  0  0  0  0  0  0  0  0  0  0  0
   29.0911   29.5583   15.1424 H   0  0  0  0  0  0  0  0  0  0  0  0
   31.1695   27.9014   15.2273 H   0  0  0  0  0  0  0  0  0  0  0  0
   31.1449   28.3050   16.9758 H   0  0  0  0  0  0  0  0  0  0  0  0
   26.2002   28.8595   17.3569 H   0  0  0  0  0  0  0  0  0  0  0  0
   26.6148   28.3507   15.6926 H   0  0  0  0  0  0  0  0  0  0  0  0
  2  1  1  0
  3  2  2  0
  4  2  1  0
  5  4  1  0
  6  5  1  0
  6  1  1  0
  7  6  2  0
  8  7  1  0
  9  8  2  0
 10  9  1  0
 11 10  2  0
 12 11  1  0
 13 12  2  0
 13  8  1  0
 15 14  1  0
 15  1  1  0
 16  4  1  0
 17 16  1  0
 18 17  2  0
 19 17  1  0
  4 20  1  1
  7 21  1  0
  9 22  1  0
 10 23  1  0
 11 24  1  0
 12 25  1  0
 13 26  1  0
 14 27  1  0
 14 28  1  0
 14 29  1  0
 15 30  1  0
 15 31  1  0
 16 32  1  0
 16 33  1  0
M  CHG  2   7   1  19  -1
M  END
$$$$
=
     RDKit          3D

 23 24  0  0  0  0  0  0  0  0999 V2000
   18.6570   15.9810    4.5450 N   0  0  0  0  0  0  0  0  0  0  0  0
   18.3670   17.2250    5.2790 C   0  0  0  0  0  0  0  0  0  0  0  0
   17.0970   16.9580    6.1090 C   0  0  0  0  0  0  0  0  0  0  0  0
   16.4400   15.9230    5.2580 C   0  0  0  0  0  0  0  0  0  0  0  0
   17.3840   15.4130    4.3560 C   0  0  0  0  0  0  0  0  0  0  0  0
   17.0060   14.4340    3.4540 C   0  0  0  0  0  0  0  0  0  0  0  0
   15.6830   13.9760    3.4640 C   0  0  0  0  0  0  0  0  0  0  0  0
   14.7530   14.4880    4.3800 C   0  0  0  0  0  0  0  0  0  0  0  0
   15.1310   15.4720    5.2930 C   0  0  0  0  0  0  0  0  0  0  0  0
   19.5750   16.0640    3.3910 C   0  0  0  0  0  0  0  0  0  0  0  0
   21.0000   17.9830    3.3840 O   0  0  0  0  0  1  0  0  0  0  0  0
   19.9820   17.4540    2.8410 C   0  0  0  0  0  0  0  0  0  0  0  0
   19.2910   17.8820    1.8690 O   0  0  0  0  0  0  0  0  0  0  0  0
   19.2073   17.4798    5.9416 H   0  0  0  0  0  0  0  0  0  0  0  0
   18.2207   18.0689    4.5888 H   0  0  0  0  0  0  0  0  0  0  0  0
   17.3381   16.5700    7.1097 H   0  0  0  0  0  0  0  0  0  0  0  0
   16.4823   17.8474    6.3121 H   0  0  0  0  0  0  0  0  0  0  0  0
   17.7341   14.0218    2.7398 H   0  0  0  0  0  0  0  0  0  0  0  0
   15.3694   13.2052    2.7446 H   0  0  0  0  0  0  0  0  0  0  0  0
   13.7195   14.1114    4.3784 H   0  0  0  0  0  0  0  0  0  0  0  0
   14.4112   15.8777    6.0191 H   0  0  0  0  0  0  0  0  0  0  0  0
   20.5031   15.5505    3.6824 H   0  0  0  0  0  0  0  0  0  0  0  0
   18.9975   15.6184    2.5677 H   0  0  0  0  0  0  0  0  0  0  0  0
  2  1  1  0
  3  2  1  0
  4  3  1  0
  5  4  2  0
  5  1  1  0
  6  5  1  0
  7  6  2  0
  8  7  1  0
  9  8  2  0
  9  4  1  0
 10  1  1  0
 12 10  1  0
 12 11  1  0
 13 12  2  0
  2 14  1  0
  2 15  1  0
  3 16  1  0
  3 17  1  0
  6 18  1  0
  7 19  1  0
  8 20  1  0
  9 21  1  0
 10 22  1  0
 10 23  1  0
M  CHG  1  11  -1
M  END
$$$$
=
     RDKit          3D

 47 48  0  0  0  0  0  0  0  0999 V2000
   28.3680   24.0450   12.8990 C   0  0  2  0  0  0  0  0  0  0  0  0
   28.3620   23.6760   11.3990 C   0  0  0  0  0  0  0  0  0  0  0  0
   27.2940   22.6330   11.0580 C   0  0  0  0  0  0  0  0  0  0  0  0
   25.8820   23.0930   11.4310 C   0  0  0  0  0  0  0  0  0  0  0  0
   25.9360   23.9930   12.5990 N   0  0  2  0  0  4  0  0  0  0  0  0
   27.0270   23.6950   13.5870 C   0  0  0  0  0  0  0  0  0  0  0  0
   30.3130   25.1010   14.6120 O   0  0  0  0  0  0  0  0  0  0  0  0
   29.5790   25.8640   14.0020 C   0  0  0  0  0  0  0  0  0  0  0  0
   28.6750   25.4620   13.0580 N   0  0  0  0  0  0  0  0  0  0  0  0
   29.4820   27.1980   14.1620 O   0  0  0  0  0  0  0  0  0  0  0  0
   29.2800   27.7790   15.4750 C   0  0  0  0  0  0  0  0  0  0  0  0
   30.6080   28.2170   16.1010 C   0  0  0  0  0  0  0  0  0  0  0  0
   28.5040   26.8230   16.3890 C   0  0  0  0  0  0  0  0  0  0  0  0
   28.4190   29.0250   15.2230 C   0  0  0  0  0  0  0  0  0  0  0  0
   24.5670   24.4160   13.2110 C   0  0  1  0  0  0  0  0  0  0  0  0
   24.6710   25.5390   14.1880 C   0  0  0  0  0  0  0  0  0  0  0  0
   25.3700   26.7300   14.2360 C   0  0  0  0  0  0  0  0  0  0  0  0
   25.0300   27.3550   15.4580 C   0  0  0  0  0  0  0  0  0  0  0  0
   24.1430   26.5140   16.0840 C   0  0  0  0  0  0  0  0  0  0  0  0
   23.9190   25.4090   15.3270 O   0  0  0  0  0  0  0  0  0  0  0  0
   23.5720   24.6790   12.0130 C   0  0  0  0  0  0  0  0  0  0  0  0
   23.7570   25.6630   11.2640 O   0  0  0  0  0  0  0  0  0  0  0  0
   22.6390   23.7940   12.0350 O   0  0  0  0  0  1  0  0  0  0  0  0
   29.1481   23.4465   13.3923 H   0  0  0  0  0  0  0  0  0  0  0  0
   28.1671   24.5858   10.8123 H   0  0  0  0  0  0  0  0  0  0  0  0
   29.3434   23.2422   11.1567 H   0  0  0  0  0  0  0  0  0  0  0  0
   27.3263   22.4363    9.9762 H   0  0  0  0  0  0  0  0  0  0  0  0
   27.5145   21.7270   11.6416 H   0  0  0  0  0  0  0  0  0  0  0  0
   25.4364   23.6279   10.5794 H   0  0  0  0  0  0  0  0  0  0  0  0
   25.2702   22.2137   11.6810 H   0  0  0  0  0  0  0  0  0  0  0  0
   26.2469   24.8774   12.1722 H   0  0  0  0  0  0  0  0  0  0  0  0
   26.8953   24.3072   14.4914 H   0  0  0  0  0  0  0  0  0  0  0  0
   27.0050   22.6376   13.8892 H   0  0  0  0  0  0  0  0  0  0  0  0
   28.2109   26.1598   12.4592 H   0  0  0  0  0  0  0  0  0  0  0  0
   30.5234   28.1891   17.1974 H   0  0  0  0  0  0  0  0  0  0  0  0
   31.4084   27.5352   15.7775 H   0  0  0  0  0  0  0  0  0  0  0  0
   30.8457   29.2411   15.7775 H   0  0  0  0  0  0  0  0  0  0  0  0
   28.7080   27.0743   17.4403 H   0  0  0  0  0  0  0  0  0  0  0  0
   27.4263   26.9205   16.1912 H   0  0  0  0  0  0  0  0  0  0  0  0
   28.8210   25.7884   16.1912 H   0  0  0  0  0  0  0  0  0  0  0  0
   28.1166   29.4626   16.1858 H   0  0  0  0  0  0  0  0  0  0  0  0
   29.0007   29.7631   14.6513 H   0  0  0  0  0  0  0  0  0  0  0  0
   27.5229   28.7420   14.6513 H   0  0  0  0  0  0  0  0  0  0  0  0
   24.1673   23.6027   13.8345 H   0  0  0  0  0  0  0  0  0  0  0  0
   26.0586   27.1175   13.4707 H   0  0  0  0  0  0  0  0  0  0  0  0
   25.4013   28.3206   15.8319 H   0  0  0  0  0  0  0  0  0  0  0  0
   23.6787   26.7083   17.0621 H   0  0  0  0  0  0  0  0  0  0  0  0
  2  1  1  0
  3  2  1  0
  4  3  1  0
  5  4  1  0
  6  5  1  0
  6  1  1  0
  8  7  2  0
  9  8  1  0
  9  1  1  0
 10  8  1  0
 11 10  1  0
 12 11  1  0
 13 11  1  0
 14 11  1  0
 15  5  1  0
 16 15  1  0
 17 16  2  0
 18 17  1  0
 19 18  2  0
 20 19  1  0
 20 16  1  0
 21 15  1  0
 22 21  2  0
 23 21  1  0
  1 24  1  1
  2 25  1  0
  2 26  1  0
  3 27  1  0
  3 28  1  0
  4 29  1  0
  4 30  1  0
  5 31  1  6
  6 32  1  0
  6 33  1  0
  9 34  1  0
 12 35  1  0
 12 36  1  0
 12 37  1  0
 13 38  1  0
 13 39  1  0
 13 40  1  0
 14 41  1  0
 14 42  1  0
 14 43  1  0
 15 44  1  1
 17 45  1  0
 18 46  1  0
 19 47  1  0
M  CHG  2   5   1  23  -1
M  END
$$$$
=
     RDKit          3D

 54 58  0  0  0  0  0  0  0  0999 V2000
   25.4580   25.5590   15.7160 O   0  0  0  0  0  0  0  0  0  0  0  0
   25.5450   26.3030   14.7390 C   0  0  0  0  0  0  0  0  0  0  0  0
   24.6210   26.3160   13.7170 N   0  0  0  0  0  0  0  0  0  0  0  0
   26.6230   27.3220   14.6750 C   0  0  0  0  0  0  0  0  0  0  0  0
   26.4280   28.4740   15.4580 C   0  0  0  0  0  0  0  0  0  0  0  0
   27.3650   29.5060   15.4450 C   0  0  0  0  0  0  0  0  0  0  0  0
   28.5020   29.3930   14.6540 C   0  0  0  0  0  0  0  0  0  0  0  0
   28.7110   28.2400   13.8930 C   0  0  0  0  0  0  0  0  0  0  0  0
   27.7860   27.1760   13.8960 C   0  0  0  0  0  0  0  0  0  0  0  0
   28.1200   25.9640   13.1290 C   0  0  0  0  0  0  0  0  0  0  0  0
   27.6570   25.8480   11.8040 C   0  0  0  0  0  0  0  0  0  0  0  0
   27.8690   24.6860   11.0610 C   0  0  0  0  0  0  0  0  0  0  0  0
   28.5420   23.6110   11.6330 C   0  0  0  0  0  0  0  0  0  0  0  0
   29.0130   23.7060   12.9410 C   0  0  0  0  0  0  0  0  0  0  0  0
   28.8230   24.8780   13.6970 C   0  0  0  0  0  0  0  0  0  0  0  0
   29.4270   24.9540   15.0720 C   0  0  0  0  0  0  0  0  0  0  0  0
   30.6130   25.4140   15.1370 O   0  0  0  0  0  0  0  0  0  0  0  0
   28.7250   24.5290   16.0390 O   0  0  0  0  0  1  0  0  0  0  0  0
   23.4720   25.5250   13.8710 N   0  0  0  0  0  0  0  0  0  0  0  0
   22.2700   26.1560   14.1380 C   0  0  0  0  0  0  0  0  0  0  0  0
   22.1420   27.3400   14.4680 O   0  0  0  0  0  0  0  0  0  0  0  0
   21.0070   25.2660   14.0190 C   0  0  0  0  0  0  0  0  0  0  0  0
   21.0400   24.0550   14.9460 C   0  0  0  0  0  0  0  0  0  0  0  0
   21.1490   24.0310   16.3300 C   0  0  0  0  0  0  0  0  0  0  0  0
   21.1740   22.7890   16.9660 C   0  0  0  0  0  0  0  0  0  0  0  0
   21.0870   21.5990   16.2230 C   0  0  0  0  0  0  0  0  0  0  0  0
   20.9730   21.6290   14.8300 C   0  0  0  0  0  0  0  0  0  0  0  0
   20.9500   22.8610   14.1960 C   0  0  0  0  0  0  0  0  0  0  0  0
   20.8510   23.1960   12.7900 C   0  0  0  0  0  0  0  0  0  0  0  0
   20.8750   24.6020   12.6500 C   0  0  0  0  0  0  0  0  0  0  0  0
   20.8020   25.2060   11.4040 C   0  0  0  0  0  0  0  0  0  0  0  0
   20.7060   24.3840   10.2800 C   0  0  0  0  0  0  0  0  0  0  0  0
   20.6840   22.9850   10.4130 C   0  0  0  0  0  0  0  0  0  0  0  0
   20.7530   22.3820   11.6730 C   0  0  0  0  0  0  0  0  0  0  0  0
   19.8130   26.0030   14.2760 O   0  0  0  0  0  0  0  0  0  0  0  0
   24.7681   26.8852   12.8713 H   0  0  0  0  0  0  0  0  0  0  0  0
   25.5289   28.5613   16.0857 H   0  0  0  0  0  0  0  0  0  0  0  0
   27.2052   30.4054   16.0578 H   0  0  0  0  0  0  0  0  0  0  0  0
   29.2371   30.2109   14.6270 H   0  0  0  0  0  0  0  0  0  0  0  0
   29.6188   28.1605   13.2769 H   0  0  0  0  0  0  0  0  0  0  0  0
   27.1176   26.6900   11.3457 H   0  0  0  0  0  0  0  0  0  0  0  0
   27.5048   24.6201   10.0252 H   0  0  0  0  0  0  0  0  0  0  0  0
   28.7018   22.6891   11.0546 H   0  0  0  0  0  0  0  0  0  0  0  0
   29.5414   22.8519   13.3896 H   0  0  0  0  0  0  0  0  0  0  0  0
   23.5223   24.4996   13.7873 H   0  0  0  0  0  0  0  0  0  0  0  0
   21.2138   24.9643   16.9086 H   0  0  0  0  0  0  0  0  0  0  0  0
   21.2628   22.7408   18.0613 H   0  0  0  0  0  0  0  0  0  0  0  0
   21.1089   20.6309   16.7448 H   0  0  0  0  0  0  0  0  0  0  0  0
   20.9032   20.6965   14.2507 H   0  0  0  0  0  0  0  0  0  0  0  0
   20.8192   26.3013   11.3042 H   0  0  0  0  0  0  0  0  0  0  0  0
   20.6469   24.8362    9.2790 H   0  0  0  0  0  0  0  0  0  0  0  0
   20.6115   22.3557    9.5137 H   0  0  0  0  0  0  0  0  0  0  0  0
   20.7300   21.2870   11.7749 H   0  0  0  0  0  0  0  0  0  0  0  0
   19.6799   26.0852   15.2536 H   0  0  0  0  0  0  0  0  0  0  0  0
  2  1  2  0
  3  2  1  0
  4  2  1  0
  5  4  2  0
  6  5  1  0
  7  6  2  0
  8  7  1  0
  9  4  1  0
  9  8  2  0
 10  9  1  0
 11 10  2  0
 12 11  1  0
 13 12  2  0
 14 13  1  0
 15 14  2  0
 15 10  1  0
 16 15  1  0
 17 16  2  0
 18 16  1  0
 19  3  1  0
 20 19  1  0
 21 20  2  0
 22 20  1  0
 23 22  1  0
 24 23  2  0
 25 24  1  0
 26 25  2  0
 27 26  1  0
 28 27  2  0
 28 23  1  0
 29 28  1  0
 30 29  2  0
 30 22  1  0
 31 30  1  0
 32 31  2  0
 33 32  1  0
 34 33  2  0
 34 29  1  0
 35 22  1  0
  3 36  1  0
  5 37  1  0
  6 38  1  0
  7 39  1  0
  8 40  1  0
 11 41  1  0
 12 42  1  0
 13 43  1  0
 14 44  1  0
 19 45  1  0
 24 46  1  0
 25 47  1  0
 26 48  1  0
 27 49  1  0
 31 50  1  0
 32 51  1  0
 33 52  1  0
 34 53  1  0
 35 54  1  0
M  CHG  1  18  -1
M  END
$$$$
=
     RDKit          3D

 37 40  0  0  0  0  0  0  0  0999 V2000
   13.8860   16.5420    4.4150 O   0  0  0  0  0  0  0  0  0  0  0  0
   14.6540   15.6400    4.1080 C   0  0  0  0  0  0  0  0  0  0  0  0
   16.1350   15.8340    4.0240 C   0  0  0  0  0  0  0  0  0  0  0  0
   16.6530   14.4390    4.2920 C   0  0  1  0  0  0  0  0  0  0  0  0
   15.5220   13.5620    3.8090 C   0  0  0  0  0  0  0  0  0  0  0  0
   15.6380   12.3710    3.5410 O   0  0  0  0  0  0  0  0  0  0  0  0
   14.3650   14.3250    3.8030 N   0  0  0  0  0  0  0  0  0  0  0  0
   13.0420   13.8210    3.5750 C   0  0  0  0  0  0  0  0  0  0  0  0
   12.8000   12.7560    2.6690 C   0  0  0  0  0  0  0  0  0  0  0  0
   11.5110   12.2550    2.4310 C   0  0  0  0  0  0  0  0  0  0  0  0
   10.4650   12.8320    3.1060 C   0  0  0  0  0  0  0  0  0  0  0  0
   10.6700   13.8640    3.9860 C   0  0  0  0  0  0  0  0  0  0  0  0
   11.9310   14.3740    4.2370 C   0  0  0  0  0  0  0  0  0  0  0  0
    9.5100   14.3030    4.5460 O   0  0  0  0  0  0  0  0  0  0  0  0
    8.5550   13.4260    3.9170 C   0  0  0  0  0  0  0  0  0  0  0  0
    9.1560   12.4840    3.0040 O   0  0  0  0  0  0  0  0  0  0  0  0
   18.2110   14.0860    3.4420 S   0  0  0  0  0  0  0  0  0  0  0  0
   19.2980   14.9590    4.5560 C   0  0  0  0  0  0  0  0  0  0  0  0
   19.5330   14.2780    5.7150 N   0  0  0  0  0  0  0  0  0  0  0  0
   20.4180   14.8070    6.5860 C   0  0  0  0  0  0  0  0  0  0  0  0
   21.0900   15.9930    6.3770 C   0  0  0  0  0  0  0  0  0  0  0  0
   20.8250   16.6840    5.2040 C   0  0  0  0  0  0  0  0  0  0  0  0
   19.9050   16.1780    4.2700 C   0  0  0  0  0  0  0  0  0  0  0  0
   19.6070   16.9810    3.0490 C   0  0  0  0  0  0  0  0  0  0  0  0
   19.1300   18.1440    3.2260 O   0  0  0  0  0  0  0  0  0  0  0  0
   19.9260   16.4600    1.9360 O   0  0  0  0  0  1  0  0  0  0  0  0
   16.4355   16.1867    3.0263 H   0  0  0  0  0  0  0  0  0  0  0  0
   16.5224   16.5915    4.7213 H   0  0  0  0  0  0  0  0  0  0  0  0
   16.9052   14.2781    5.3505 H   0  0  0  0  0  0  0  0  0  0  0  0
   13.6513   12.3082    2.1354 H   0  0  0  0  0  0  0  0  0  0  0  0
   11.3446   11.4268    1.7264 H   0  0  0  0  0  0  0  0  0  0  0  0
   12.0636   15.2036    4.9471 H   0  0  0  0  0  0  0  0  0  0  0  0
    8.0287   12.8633    4.7021 H   0  0  0  0  0  0  0  0  0  0  0  0
    7.8726   14.0575    3.3292 H   0  0  0  0  0  0  0  0  0  0  0  0
   20.6152   14.2589    7.5191 H   0  0  0  0  0  0  0  0  0  0  0  0
   21.8104   16.3772    7.1142 H   0  0  0  0  0  0  0  0  0  0  0  0
   21.3390   17.6356    5.0032 H   0  0  0  0  0  0  0  0  0  0  0  0
  2  1  2  0
  3  2  1  0
  4  3  1  0
  5  4  1  0
  6  5  2  0
  7  5  1  0
  7  2  1  0
  8  7  1  0
  9  8  2  0
 10  9  1  0
 11 10  2  0
 12 11  1  0
 13 12  2  0
 13  8  1  0
 14 12  1  0
 15 14  1  0
 16 15  1  0
 16 11  1  0
 17  4  1  0
 18 17  1  0
 19 18  2  0
 20 19  1  0
 21 20  2  0
 22 21  1  0
 23 18  1  0
 23 22  2  0
 24 23  1  0
 25 24  2  0
 26 24  1  0
  3 27  1  0
  3 28  1  0
  4 29  1  1
  9 30  1  0
 10 31  1  0
 13 32  1  0
 15 33  1  0
 15 34  1  0
 20 35  1  0
 21 36  1  0
 22 37  1  0
M  CHG  1  26  -1
M  END
$$$$
=
     RDKit          3D

 51 54  0  0  0  0  0  0  0  0999 V2000
   21.0560   17.6360    5.5200 C   0  0  1  0  0  0  0  0  0  0  0  0
   19.7630   18.4120    5.3220 C   0  0  0  0  0  0  0  0  0  0  0  0
   18.5470   17.6100    5.7940 C   0  0  0  0  0  0  0  0  0  0  0  0
   18.5700   16.0830    5.4520 C   0  0  2  0  0  0  0  0  0  0  0  0
   19.6690   15.7700    4.4360 C   0  0  0  0  0  0  0  0  0  0  0  0
   19.4510   15.0260    3.3360 C   0  0  0  0  0  0  0  0  0  0  0  0
   18.1540   14.3530    3.0060 C   0  0  0  0  0  0  0  0  0  0  0  0
   17.1640   14.3040    4.1890 C   0  0  1  0  0  0  0  0  0  0  0  0
   17.1580   15.6930    4.8710 C   0  0  1  0  0  0  0  0  0  0  0  0
   16.0210   15.7450    5.8960 C   0  0  0  0  0  0  0  0  0  0  0  0
   14.6800   15.6300    5.1780 C   0  0  0  0  0  0  0  0  0  0  0  0
   14.5900   14.4400    4.2450 C   0  0  0  0  0  0  0  0  0  0  0  0
   15.7720   13.8160    3.7820 C   0  0  0  0  0  0  0  0  0  0  0  0
   15.6530   12.6710    2.9790 C   0  0  0  0  0  0  0  0  0  0  0  0
   14.4060   12.1810    2.5980 C   0  0  0  0  0  0  0  0  0  0  0  0
   13.2310   12.8170    3.0070 C   0  0  0  0  0  0  0  0  0  0  0  0
   13.3160   13.9740    3.8130 C   0  0  0  0  0  0  0  0  0  0  0  0
   12.0580   14.6770    4.2660 C   0  0  0  0  0  0  0  0  0  0  0  0
   11.9130   12.2470    2.5570 C   0  0  0  0  0  0  0  0  0  0  0  0
   21.0540   16.3510    4.6880 C   0  0  0  0  0  0  0  0  0  0  0  0
   18.8840   15.2800    6.7390 C   0  0  0  0  0  0  0  0  0  0  0  0
   22.2440   19.1670    4.1610 O   0  0  0  0  0  1  0  0  0  0  0  0
   22.3400   18.4100    5.1710 C   0  0  0  0  0  0  0  0  0  0  0  0
   23.3430   18.1930    5.9070 O   0  0  0  0  0  0  0  0  0  0  0  0
   21.0768   17.4278    6.5999 H   0  0  0  0  0  0  0  0  0  0  0  0
   19.8174   19.3489    5.8958 H   0  0  0  0  0  0  0  0  0  0  0  0
   19.6450   18.6159    4.2475 H   0  0  0  0  0  0  0  0  0  0  0  0
   18.4786   17.7110    6.8872 H   0  0  0  0  0  0  0  0  0  0  0  0
   17.6838   18.0264    5.2540 H   0  0  0  0  0  0  0  0  0  0  0  0
   20.2846   14.9033    2.6288 H   0  0  0  0  0  0  0  0  0  0  0  0
   17.6794   14.8999    2.1780 H   0  0  0  0  0  0  0  0  0  0  0  0
   18.3897   13.3121    2.7397 H   0  0  0  0  0  0  0  0  0  0  0  0
   17.4993   13.5518    4.9182 H   0  0  0  0  0  0  0  0  0  0  0  0
   16.9593   16.4699    4.1181 H   0  0  0  0  0  0  0  0  0  0  0  0
   16.1292   14.9114    6.6055 H   0  0  0  0  0  0  0  0  0  0  0  0
   16.0633   16.6997    6.4408 H   0  0  0  0  0  0  0  0  0  0  0  0
   13.8872   15.5387    5.9351 H   0  0  0  0  0  0  0  0  0  0  0  0
   14.5674   16.5329    4.5599 H   0  0  0  0  0  0  0  0  0  0  0  0
   16.5623   12.1504    2.6440 H   0  0  0  0  0  0  0  0  0  0  0  0
   14.3455   11.2819    1.9671 H   0  0  0  0  0  0  0  0  0  0  0  0
   12.0241   14.6959    5.3653 H   0  0  0  0  0  0  0  0  0  0  0  0
   12.0550   15.7075    3.8813 H   0  0  0  0  0  0  0  0  0  0  0  0
   11.1788   14.1395    3.8813 H   0  0  0  0  0  0  0  0  0  0  0  0
   11.3072   11.9850    3.4370 H   0  0  0  0  0  0  0  0  0  0  0  0
   11.3777   12.9940    1.9525 H   0  0  0  0  0  0  0  0  0  0  0  0
   12.0907   11.3453    1.9525 H   0  0  0  0  0  0  0  0  0  0  0  0
   21.6530   15.5961    5.2185 H   0  0  0  0  0  0  0  0  0  0  0  0
   21.4700   16.6122    3.7038 H   0  0  0  0  0  0  0  0  0  0  0  0
   18.6445   15.8924    7.6208 H   0  0  0  0  0  0  0  0  0  0  0  0
   18.2787   14.3616    6.7550 H   0  0  0  0  0  0  0  0  0  0  0  0
   19.9517   15.0158    6.7550 H   0  0  0  0  0  0  0  0  0  0  0  0
  2  1  1  0
  3  2  1  0
  4  3  1  0
  5  4  1  0
  6  5  2  0
  7  6  1  0
  8  7  1  0
  9  8  1  0
  9  4  1  0
 10  9  1  0
 11 10  1  0
 12 11  1  0
 13 12  2  0
 13  8  1  0
 14 13  1  0
 15 14  2  0
 16 15  1  0
 17 16  2  0
 17 12  1  0
 18 17  1  0
 19 16  1  0
 20  5  1  0
 20  1  1  0
  4 21  1  1
 23  1  1  0
 23 22  1  0
 24 23  2  0
  1 25  1  1
  2 26  1  0
  2 27  1  0
  3 28  1  0
  3 29  1  0
  6 30  1  0
  7 31  1  0
  7 32  1  0
  8 33  1  1
  9 34  1  6
 10 35  1  0
 10 36  1  0
 11 37  1  0
 11 38  1  0
 14 39  1  0
 15 40  1  0
 18 41  1  0
 18 42  1  0
 18 43  1  0
 19 44  1  0
 19 45  1  0
 19 46  1  0
 20 47  1  0
 20 48  1  0
 21 49  1  0
 21 50  1  0
 21 51  1  0
M  CHG  1  22  -1
M  END
$$$$
=
     RDKit          3D

 46 47  0  0  0  0  0  0  0  0999 V2000
   24.6830   25.5070   13.3860 C   0  0  2  0  0  0  0  0  0  0  0  0
   24.1090   25.5040   12.0670 N   0  0  0  0  0  0  0  0  0  0  0  0
   23.3120   26.5950   11.5610 C   0  0  0  0  0  0  0  0  0  0  0  0
   24.7300   24.5860   11.2400 C   0  0  0  0  0  0  0  0  0  0  0  0
   24.5980   24.4990   10.0310 O   0  0  0  0  0  0  0  0  0  0  0  0
   25.6930   23.8190   12.0600 C   0  0  0  0  0  0  0  0  0  0  0  0
   25.6580   24.3890   13.2770 C   0  0  0  0  0  0  0  0  0  0  0  0
   26.5520   24.1270   14.4240 C   0  0  0  0  0  0  0  0  0  0  0  0
   26.4560   23.0720   15.0480 O   0  0  0  0  0  0  0  0  0  0  0  0
   27.5540   25.1390   14.8210 C   0  0  0  0  0  0  0  0  0  0  0  0
   28.6610   25.4160   14.0200 C   0  0  0  0  0  0  0  0  0  0  0  0
   29.5150   26.4600   14.3660 C   0  0  0  0  0  0  0  0  0  0  0  0
   29.2770   27.2170   15.5190 C   0  0  0  0  0  0  0  0  0  0  0  0
   28.2420   26.8640   16.3950 C   0  0  0  0  0  0  0  0  0  0  0  0
   27.3720   25.8300   16.0250 C   0  0  0  0  0  0  0  0  0  0  0  0
   27.9120   27.4560   17.5850 O   0  0  0  0  0  0  0  0  0  0  0  0
   26.9720   28.5200   17.5330 C   0  0  0  0  0  0  0  0  0  0  0  0
   30.0710   28.3120   15.7520 O   0  0  0  0  0  0  0  0  0  0  0  0
   29.4890   29.4670   15.1310 C   0  0  0  0  0  0  0  0  0  0  0  0
   23.4070   25.1610   14.6370 S   0  0  0  0  0  0  0  0  0  0  0  0
   23.6660   26.7580   16.8870 C   0  0  0  0  0  0  0  0  0  0  0  0
   23.2890   26.7970   15.4170 C   0  0  0  0  0  0  0  0  0  0  0  0
   26.5630   22.7730   11.4530 C   0  0  0  0  0  0  0  0  0  0  0  0
   27.9210   23.2940   10.9750 C   0  0  0  0  0  0  0  0  0  0  0  0
   28.0520   24.5450   10.8550 O   0  0  0  0  0  0  0  0  0  0  0  0
   28.7590   22.3830   10.7030 O   0  0  0  0  0  1  0  0  0  0  0  0
   25.1332   26.4627   13.6927 H   0  0  0  0  0  0  0  0  0  0  0  0
   22.8949   27.1660   12.4036 H   0  0  0  0  0  0  0  0  0  0  0  0
   23.9420   27.2552   10.9468 H   0  0  0  0  0  0  0  0  0  0  0  0
   22.4915   26.1956   10.9468 H   0  0  0  0  0  0  0  0  0  0  0  0
   28.8584   24.8139   13.1208 H   0  0  0  0  0  0  0  0  0  0  0  0
   30.3818   26.6912   13.7294 H   0  0  0  0  0  0  0  0  0  0  0  0
   26.5370   25.5582   16.6875 H   0  0  0  0  0  0  0  0  0  0  0  0
   26.7043   28.8231   18.5560 H   0  0  0  0  0  0  0  0  0  0  0  0
   27.4151   29.3750   17.0014 H   0  0  0  0  0  0  0  0  0  0  0  0
   26.0689   28.1857   17.0014 H   0  0  0  0  0  0  0  0  0  0  0  0
   29.1383   30.1631   15.9072 H   0  0  0  0  0  0  0  0  0  0  0  0
   30.2433   29.9659   14.5048 H   0  0  0  0  0  0  0  0  0  0  0  0
   28.6392   29.1576   14.5048 H   0  0  0  0  0  0  0  0  0  0  0  0
   22.7581   26.8519   17.5010 H   0  0  0  0  0  0  0  0  0  0  0  0
   24.1641   25.8035   17.1126 H   0  0  0  0  0  0  0  0  0  0  0  0
   24.3489   27.5903   17.1126 H   0  0  0  0  0  0  0  0  0  0  0  0
   23.9671   27.4883   14.8953 H   0  0  0  0  0  0  0  0  0  0  0  0
   22.2438   27.1320   15.3444 H   0  0  0  0  0  0  0  0  0  0  0  0
   26.7381   21.9895   12.2049 H   0  0  0  0  0  0  0  0  0  0  0  0
   26.0355   22.3963   10.5643 H   0  0  0  0  0  0  0  0  0  0  0  0
  2  1  1  0
  3  2  1  0
  4  2  1  0
  5  4  2  0
  6  4  1  0
  7  6  2  0
  7  1  1  0
  8  7  1  0
  9  8  2  0
 10  8  1  0
 11 10  2  0
 12 11  1  0
 13 12  2  0
 14 13  1  0
 15 10  1  0
 15 14  2  0
 16 14  1  0
 17 16  1  0
 18 13  1  0
 19 18  1  0
 20  1  1  0
 22 20  1  0
 22 21  1  0
 23  6  1  0
 24 23  1  0
 25 24  2  0
 26 24  1  0
  1 27  1  1
  3 28  1  0
  3 29  1  0
  3 30  1  0
 11 31  1  0
 12 32  1  0
 15 33  1  0
 17 34  1  0
 17 35  1  0
 17 36  1  0
 19 37  1  0
 19 38  1  0
 19 39  1  0
 21 40  1  0
 21 41  1  0
 21 42  1  0
 22 43  1  0
 22 44  1  0
 23 45  1  0
 23 46  1  0
M  CHG  1  26  -1
M  END
$$$$
=
     RDKit          3D

 41 43  0  0  0  0  0  0  0  0999 V2000
   11.3010   13.1550    3.1720 C   0  0  0  0  0  0  0  0  0  0  0  0
   10.9610   12.3260    2.0980 C   0  0  0  0  0  0  0  0  0  0  0  0
    9.6230   11.9440    1.8610 C   0  0  0  0  0  0  0  0  0  0  0  0
    8.6700   12.4300    2.7780 C   0  0  0  0  0  0  0  0  0  0  0  0
    9.1270   13.2060    3.8320 C   0  0  0  0  0  0  0  0  0  0  0  0
   10.3880   13.6160    4.0500 N   0  0  0  0  0  0  0  0  0  0  0  0
    8.0360   13.4490    4.6270 N   0  0  0  0  0  0  0  0  0  0  0  0
    6.8660   13.0540    4.0530 N   0  0  0  0  0  0  0  0  0  0  0  0
    7.2600   12.3640    2.9740 C   0  0  0  0  0  0  0  0  0  0  0  0
    6.2420   11.6870    2.1370 C   0  0  0  0  0  0  0  0  0  0  0  0
   15.3570   14.4050    4.0180 C   0  0  0  0  0  0  0  0  0  0  0  0
   14.2650   15.1200    4.5170 C   0  0  0  0  0  0  0  0  0  0  0  0
   12.9580   14.7070    4.2350 C   0  0  0  0  0  0  0  0  0  0  0  0
   12.6950   13.5700    3.4490 C   0  0  0  0  0  0  0  0  0  0  0  0
   13.8070   12.8730    2.9400 C   0  0  0  0  0  0  0  0  0  0  0  0
   15.1170   13.2830    3.2190 C   0  0  0  0  0  0  0  0  0  0  0  0
   16.7870   16.1130    5.1680 C   0  0  0  0  0  0  0  0  0  0  0  0
   16.7630   14.8610    4.3030 C   0  0  0  0  0  0  0  0  0  0  0  0
    9.2850   11.0260    0.7270 C   0  0  0  0  0  0  0  0  0  0  0  0
    8.6150   11.6410   -0.2920 F   0  0  0  0  0  0  0  0  0  0  0  0
    8.4900    9.9850    1.1000 F   0  0  0  0  0  0  0  0  0  0  0  0
    8.0260   14.1800    5.8730 C   0  0  0  0  0  0  0  0  0  0  0  0
    8.8860   13.5050    6.9240 C   0  0  0  0  0  0  0  0  0  0  0  0
    9.7400   14.2630    7.4770 O   0  0  0  0  0  0  0  0  0  0  0  0
    8.6260   12.2970    7.1950 O   0  0  0  0  0  1  0  0  0  0  0  0
   11.7521   11.9645    1.4246 H   0  0  0  0  0  0  0  0  0  0  0  0
    5.5022   11.1950    2.7856 H   0  0  0  0  0  0  0  0  0  0  0  0
    5.7366   12.4295    1.5020 H   0  0  0  0  0  0  0  0  0  0  0  0
    6.7313   10.9338    1.5020 H   0  0  0  0  0  0  0  0  0  0  0  0
   14.4339   16.0137    5.1357 H   0  0  0  0  0  0  0  0  0  0  0  0
   12.1143   15.2863    4.6383 H   0  0  0  0  0  0  0  0  0  0  0  0
   13.6436   11.9868    2.3092 H   0  0  0  0  0  0  0  0  0  0  0  0
   15.9648   12.7170    2.8057 H   0  0  0  0  0  0  0  0  0  0  0  0
   16.7815   15.8253    6.2297 H   0  0  0  0  0  0  0  0  0  0  0  0
   17.6964   16.6921    4.9497 H   0  0  0  0  0  0  0  0  0  0  0  0
   15.9005   16.7265    4.9497 H   0  0  0  0  0  0  0  0  0  0  0  0
   17.2990   14.0559    4.8270 H   0  0  0  0  0  0  0  0  0  0  0  0
   17.2462   15.0989    3.3439 H   0  0  0  0  0  0  0  0  0  0  0  0
   10.2741   10.6776    0.3948 H   0  0  0  0  0  0  0  0  0  0  0  0
    8.4113   15.1947    5.6945 H   0  0  0  0  0  0  0  0  0  0  0  0
    6.9911   14.2121    6.2444 H   0  0  0  0  0  0  0  0  0  0  0  0
  2  1  2  0
  3  2  1  0
  4  3  2  0
  5  4  1  0
  6  5  2  0
  6  1  1  0
  7  5  1  0
  8  7  1  0
  9  8  2  0
  9  4  1  0
 10  9  1  0
 12 11  2  0
 13 12  1  0
 14 13  2  0
 14  1  1  0
 15 14  1  0
 16 15  2  0
 16 11  1  0
 18 11  1  0
 18 17  1  0
 19  3  1  0
 20 19  1  0
 21 19  1  0
 22  7  1  0
 23 22  1  0
 24 23  2  0
 25 23  1  0
  2 26  1  0
 10 27  1  0
 10 28  1  0
 10 29  1  0
 12 30  1  0
 13 31  1  0
 15 32  1  0
 16 33  1  0
 17 34  1  0
 17 35  1  0
 17 36  1  0
 18 37  1  0
 18 38  1  0
 19 39  1  0
 22 40  1  0
 22 41  1  0
M  CHG  1  25  -1
M  END
$$$$
=
     RDKit          3D

 31 32  0  0  0  0  0  0  0  0999 V2000
   17.4730   15.9350    6.2050 C   0  0  0  0  0  0  0  0  0  0  0  0
   17.7480   16.9410    5.0910 C   0  0  0  0  0  0  0  0  0  0  0  0
   19.2020   16.9370    4.6630 C   0  0  0  0  0  0  0  0  0  0  0  0
   19.6940   18.0990    3.8060 C   0  0  0  0  0  0  0  0  0  0  0  0
   20.1070   18.0180    5.2440 C   0  0  0  0  0  0  0  0  0  0  0  0
   20.7500   15.2270    5.1810 O   0  0  0  0  0  1  0  0  0  0  0  0
   19.8160   15.6060    4.4080 C   0  0  0  0  0  0  0  0  0  0  0  0
   19.3410   14.9280    3.4420 O   0  0  0  0  0  0  0  0  0  0  0  0
   16.0770   15.6090    6.2090 O   0  0  0  0  0  0  0  0  0  0  0  0
   15.4660   16.0090    4.9820 C   0  0  0  0  0  0  0  0  0  0  0  0
   14.8490   14.8200    4.2840 C   0  0  0  0  0  0  0  0  0  0  0  0
   13.4800   14.5360    4.4010 C   0  0  0  0  0  0  0  0  0  0  0  0
   12.9150   13.4580    3.7190 C   0  0  0  0  0  0  0  0  0  0  0  0
   13.7090   12.6550    2.9010 C   0  0  0  0  0  0  0  0  0  0  0  0
   15.0680   12.9330    2.7650 C   0  0  0  0  0  0  0  0  0  0  0  0
   15.6340   14.0100    3.4490 C   0  0  0  0  0  0  0  0  0  0  0  0
   18.0636   15.0233    6.0320 H   0  0  0  0  0  0  0  0  0  0  0  0
   17.7545   16.3704    7.1751 H   0  0  0  0  0  0  0  0  0  0  0  0
   17.1222   16.6878    4.2225 H   0  0  0  0  0  0  0  0  0  0  0  0
   17.5116   17.9441    5.4755 H   0  0  0  0  0  0  0  0  0  0  0  0
   20.4339   17.9200    3.0120 H   0  0  0  0  0  0  0  0  0  0  0  0
   19.2059   18.8623    3.1822 H   0  0  0  0  0  0  0  0  0  0  0  0
   21.1493   17.7799    5.5026 H   0  0  0  0  0  0  0  0  0  0  0  0
   20.0458   18.6978    6.1066 H   0  0  0  0  0  0  0  0  0  0  0  0
   14.6821   16.7512    5.1934 H   0  0  0  0  0  0  0  0  0  0  0  0
   16.2355   16.4448    4.3278 H   0  0  0  0  0  0  0  0  0  0  0  0
   12.8453   15.1702    5.0374 H   0  0  0  0  0  0  0  0  0  0  0  0
   11.8420   13.2413    3.8267 H   0  0  0  0  0  0  0  0  0  0  0  0
   13.2639   11.8042    2.3643 H   0  0  0  0  0  0  0  0  0  0  0  0
   15.6954   12.3027    2.1176 H   0  0  0  0  0  0  0  0  0  0  0  0
   16.7062   14.2261    3.3324 H   0  0  0  0  0  0  0  0  0  0  0  0
  2  1  1  0
  3  2  1  0
  4  3  1  0
  5  4  1  0
  5  3  1  0
  7  6  1  0
  7  3  1  0
  8  7  2  0
  9  1  1  0
 10  9  1  0
 11 10  1  0
 12 11  2  0
 13 12  1  0
 14 13  2  0
 15 14  1  0
 16 15  2  0
 16 11  1  0
  1 17  1  0
  1 18  1  0
  2 19  1  0
  2 20  1  0
  4 21  1  0
  4 22  1  0
  5 23  1  0
  5 24  1  0
 10 25  1  0
 10 26  1  0
 12 27  1  0
 13 28  1  0
 14 29  1  0
 15 30  1  0
 16 31  1  0
M  CHG  1   6  -1
M  END
$$$$
=
     RDKit          3D

 43 46  0  0  0  0  0  0  0  0999 V2000
   13.7010   13.7560    3.5960 N   0  0  0  0  0  0  0  0  0  0  0  0
   14.7020   12.8610    3.1830 C   0  0  0  0  0  0  0  0  0  0  0  0
   14.5050   11.7350    2.7220 O   0  0  0  0  0  0  0  0  0  0  0  0
   16.1150   13.2730    3.3640 C   0  0  0  0  0  0  0  0  0  0  0  0
   17.1260   12.4160    2.9060 C   0  0  0  0  0  0  0  0  0  0  0  0
   18.4570   12.7580    3.0800 C   0  0  0  0  0  0  0  0  0  0  0  0
   18.7800   13.9520    3.7200 C   0  0  0  0  0  0  0  0  0  0  0  0
   17.7900   14.8370    4.2060 C   0  0  0  0  0  0  0  0  0  0  0  0
   16.4280   14.4790    3.9990 C   0  0  0  0  0  0  0  0  0  0  0  0
   15.4110   15.3370    4.4270 C   0  0  0  0  0  0  0  0  0  0  0  0
   13.9880   14.9980    4.1870 C   0  0  0  0  0  0  0  0  0  0  0  0
   13.1510   15.8530    4.4770 O   0  0  0  0  0  0  0  0  0  0  0  0
   15.7150   16.5470    5.0570 C   0  0  0  0  0  0  0  0  0  0  0  0
   17.0400   16.9030    5.2720 C   0  0  0  0  0  0  0  0  0  0  0  0
   18.0910   16.0620    4.8650 C   0  0  0  0  0  0  0  0  0  0  0  0
    9.5910   12.6540    3.0130 C   0  0  0  0  0  0  0  0  0  0  0  0
   10.5900   12.1220    2.1960 C   0  0  0  0  0  0  0  0  0  0  0  0
   11.9300   12.4840    2.3890 C   0  0  0  0  0  0  0  0  0  0  0  0
   12.3120   13.3850    3.3980 C   0  0  0  0  0  0  0  0  0  0  0  0
   11.2910   13.9110    4.2080 C   0  0  0  0  0  0  0  0  0  0  0  0
    9.9500   13.5520    4.0220 C   0  0  0  0  0  0  0  0  0  0  0  0
    8.1520   12.3030    2.8560 C   0  0  0  0  0  0  0  0  0  0  0  0
    7.7430   11.4670    2.0660 O   0  0  0  0  0  0  0  0  0  0  0  0
    7.3880   13.0380    3.7020 O   0  0  0  0  0  0  0  0  0  0  0  0
    7.0980   11.5890    5.6200 C   0  0  0  0  0  0  0  0  0  0  0  0
    6.4210   12.3040    4.4670 C   0  0  0  0  0  0  0  0  0  0  0  0
   19.5020   16.5300    5.1590 C   0  0  0  0  0  0  0  0  0  0  0  0
   20.0280   17.3580    4.3530 O   0  0  0  0  0  0  0  0  0  0  0  0
   20.0590   16.0280    6.1850 O   0  0  0  0  0  1  0  0  0  0  0  0
   16.8619   11.4713    2.4081 H   0  0  0  0  0  0  0  0  0  0  0  0
   19.2527   12.0917    2.7155 H   0  0  0  0  0  0  0  0  0  0  0  0
   19.8399   14.2152    3.8517 H   0  0  0  0  0  0  0  0  0  0  0  0
   14.9054   17.2168    5.3823 H   0  0  0  0  0  0  0  0  0  0  0  0
   17.2709   17.8572    5.7681 H   0  0  0  0  0  0  0  0  0  0  0  0
   10.3240   11.4149    1.3965 H   0  0  0  0  0  0  0  0  0  0  0  0
   12.7019   12.0524    1.7348 H   0  0  0  0  0  0  0  0  0  0  0  0
   11.5511   14.6212    5.0067 H   0  0  0  0  0  0  0  0  0  0  0  0
    9.1743   13.9796    4.6743 H   0  0  0  0  0  0  0  0  0  0  0  0
    6.7195   11.9888    6.5723 H   0  0  0  0  0  0  0  0  0  0  0  0
    6.8807   10.5122    5.5621 H   0  0  0  0  0  0  0  0  0  0  0  0
    8.1850   11.7473    5.5621 H   0  0  0  0  0  0  0  0  0  0  0  0
    5.6673   13.0002    4.8636 H   0  0  0  0  0  0  0  0  0  0  0  0
    5.9393   11.5593    3.8163 H   0  0  0  0  0  0  0  0  0  0  0  0
  2  1  1  0
  3  2  2  0
  4  2  1  0
  5  4  2  0
  6  5  1  0
  7  6  2  0
  8  7  1  0
  9  4  1  0
  9  8  2  0
 10  9  1  0
 11 10  1  0
 11  1  1  0
 12 11  2  0
 13 10  2  0
 14 13  1  0
 15  8  1  0
 15 14  2  0
 17 16  2  0
 18 17  1  0
 19 18  2  0
 19  1  1  0
 20 19  1  0
 21 16  1  0
 21 20  2  0
 22 16  1  0
 23 22  2  0
 24 22  1  0
 26 24  1  0
 26 25  1  0
 27 15  1  0
 28 27  2  0
 29 27  1  0
  5 30  1  0
  6 31  1  0
  7 32  1  0
 13 33  1  0
 14 34  1  0
 17 35  1  0
 18 36  1  0
 20 37  1  0
 21 38  1  0
 25 39  1  0
 25 40  1  0
 25 41  1  0
 26 42  1  0
 26 43  1  0
M  CHG  1  29  -1
M  END
$$$$
=
     RDKit          3D

 35 35  0  0  0  0  0  0  0  0999 V2000
   15.6480   15.5350    5.3340 C   0  0  0  0  0  0  0  0  0  0  0  0
   16.6430   16.6920    5.3650 C   0  0  0  0  0  0  0  0  0  0  0  0
   18.0260   16.2680    5.0150 N   0  0  2  0  0  4  0  0  0  0  0  0
   18.7710   15.5490    6.0810 C   0  0  0  0  0  0  0  0  0  0  0  0
   18.8980   17.3580    4.3230 C   0  0  0  0  0  0  0  0  0  0  0  0
   19.5330   15.6540    2.7630 O   0  0  0  0  0  1  0  0  0  0  0  0
   19.3300   16.8770    2.9110 C   0  0  0  0  0  0  0  0  0  0  0  0
   19.4120   17.8700    2.1160 O   0  0  0  0  0  0  0  0  0  0  0  0
   14.8650   15.4490    4.0200 C   0  0  0  0  0  0  0  0  0  0  0  0
   14.3540   14.0710    3.7730 C   0  0  0  0  0  0  0  0  0  0  0  0
   13.0360   13.5700    3.9680 C   0  0  0  0  0  0  0  0  0  0  0  0
   11.8460   14.2950    4.4760 C   0  0  0  0  0  0  0  0  0  0  0  0
   12.9390   12.2800    3.6290 N   0  0  0  0  0  0  0  0  0  0  0  0
   14.1770   11.9500    3.2330 N   0  0  0  0  0  0  0  0  0  0  0  0
   15.0660   12.9860    3.2940 C   0  0  0  0  0  0  0  0  0  0  0  0
   16.4880   12.8350    2.8960 C   0  0  0  0  0  0  0  0  0  0  0  0
   16.2008   14.5944    5.4740 H   0  0  0  0  0  0  0  0  0  0  0  0
   14.9187   15.7087    6.1389 H   0  0  0  0  0  0  0  0  0  0  0  0
   16.3163   17.4568    4.6450 H   0  0  0  0  0  0  0  0  0  0  0  0
   16.6652   17.0845    6.3924 H   0  0  0  0  0  0  0  0  0  0  0  0
   17.8390   15.5573    4.2934 H   0  0  0  0  0  0  0  0  0  0  0  0
   18.4195   15.8882    7.0666 H   0  0  0  0  0  0  0  0  0  0  0  0
   18.5988   14.4670    5.9827 H   0  0  0  0  0  0  0  0  0  0  0  0
   19.8462   15.7595    5.9827 H   0  0  0  0  0  0  0  0  0  0  0  0
   18.3142   18.2856    4.2288 H   0  0  0  0  0  0  0  0  0  0  0  0
   19.7957   17.5416    4.9316 H   0  0  0  0  0  0  0  0  0  0  0  0
   14.0124   16.1425    4.0668 H   0  0  0  0  0  0  0  0  0  0  0  0
   15.5447   15.7157    3.1973 H   0  0  0  0  0  0  0  0  0  0  0  0
   11.8552   14.2894    5.5759 H   0  0  0  0  0  0  0  0  0  0  0  0
   11.8674   15.3336    4.1144 H   0  0  0  0  0  0  0  0  0  0  0  0
   10.9328   13.7996    4.1144 H   0  0  0  0  0  0  0  0  0  0  0  0
   14.4335   11.0051    2.9132 H   0  0  0  0  0  0  0  0  0  0  0  0
   17.1158   12.7683    3.7968 H   0  0  0  0  0  0  0  0  0  0  0  0
   16.6062   11.9193    2.2981 H   0  0  0  0  0  0  0  0  0  0  0  0
   16.7958   13.7055    2.2981 H   0  0  0  0  0  0  0  0  0  0  0  0
  2  1  1  0
  3  2  1  0
  4  3  1  0
  5  3  1  0
  7  6  1  0
  7  5  1  0
  8  7  2  0
  9  1  1  0
 10  9  1  0
 11 10  1  0
 12 11  1  0
 13 11  2  0
 14 13  1  0
 15 14  1  0
 15 10  2  0
 16 15  1  0
  1 17  1  0
  1 18  1  0
  2 19  1  0
  2 20  1  0
  3 21  1  6
  4 22  1  0
  4 23  1  0
  4 24  1  0
  5 25  1  0
  5 26  1  0
  9 27  1  0
  9 28  1  0
 12 29  1  0
 12 30  1  0
 12 31  1  0
 14 32  1  0
 16 33  1  0
 16 34  1  0
 16 35  1  0
M  CHG  2   3   1   6  -1
M  END
$$$$
=
     RDKit          3D

 40 39  0  0  0  0  0  0  0  0999 V2000
   17.7760   16.0160    4.6520 C   0  0  1  0  0  0  0  0  0  0  0  0
   17.3370   15.0840    3.6130 O   0  0  0  0  0  0  0  0  0  0  0  0
   18.0990   13.9740    3.4160 C   0  0  0  0  0  0  0  0  0  0  0  0
   19.3200   13.9560    3.4660 O   0  0  0  0  0  0  0  0  0  0  0  0
   17.2120   12.8010    3.0720 C   0  0  0  0  0  0  0  0  0  0  0  0
   15.7800   13.2150    2.7310 C   0  0  0  0  0  0  0  0  0  0  0  0
   13.3300   12.7880    3.1420 C   0  0  0  0  0  0  0  0  0  0  0  0
   14.7410   12.2420    3.2940 C   0  0  0  0  0  0  0  0  0  0  0  0
   18.7110   17.0970    4.0260 C   0  0  0  0  0  0  0  0  0  0  0  0
   19.9930   17.5310    4.8120 N   0  0  0  0  0  4  0  0  0  0  0  0
   19.6140   18.7110    5.6930 C   0  0  0  0  0  0  0  0  0  0  0  0
   21.1480   17.9430    3.9160 C   0  0  0  0  0  0  0  0  0  0  0  0
   20.4850   16.3990    5.7250 C   0  0  0  0  0  0  0  0  0  0  0  0
   16.4800   16.5880    5.2140 C   0  0  0  0  0  0  0  0  0  0  0  0
   15.9200   15.4970    6.0860 C   0  0  0  0  0  0  0  0  0  0  0  0
   16.4720   15.3690    7.2110 O   0  0  0  0  0  0  0  0  0  0  0  0
   14.8710   14.9580    5.6400 O   0  0  0  0  0  1  0  0  0  0  0  0
   18.3702   15.5512    5.4525 H   0  0  0  0  0  0  0  0  0  0  0  0
   17.6420   12.2788    2.2046 H   0  0  0  0  0  0  0  0  0  0  0  0
   17.1648   12.1526    3.9594 H   0  0  0  0  0  0  0  0  0  0  0  0
   15.5919   14.2143    3.1506 H   0  0  0  0  0  0  0  0  0  0  0  0
   15.6823   13.2127    1.6353 H   0  0  0  0  0  0  0  0  0  0  0  0
   12.8931   12.9571    4.1372 H   0  0  0  0  0  0  0  0  0  0  0  0
   13.3622   13.7386    2.5894 H   0  0  0  0  0  0  0  0  0  0  0  0
   12.7140   12.0633    2.5894 H   0  0  0  0  0  0  0  0  0  0  0  0
   14.9475   12.0762    4.3616 H   0  0  0  0  0  0  0  0  0  0  0  0
   14.8097   11.2989    2.7321 H   0  0  0  0  0  0  0  0  0  0  0  0
   19.0444   16.7110    3.0514 H   0  0  0  0  0  0  0  0  0  0  0  0
   18.0911   18.0055    4.0054 H   0  0  0  0  0  0  0  0  0  0  0  0
   19.7064   18.4234    6.7507 H   0  0  0  0  0  0  0  0  0  0  0  0
   20.2859   19.5562    5.4828 H   0  0  0  0  0  0  0  0  0  0  0  0
   18.5756   19.0069    5.4828 H   0  0  0  0  0  0  0  0  0  0  0  0
   22.0031   18.2480    4.5371 H   0  0  0  0  0  0  0  0  0  0  0  0
   21.4405   17.0937    3.2810 H   0  0  0  0  0  0  0  0  0  0  0  0
   20.8370   18.7856    3.2810 H   0  0  0  0  0  0  0  0  0  0  0  0
   20.3567   16.6943    6.7768 H   0  0  0  0  0  0  0  0  0  0  0  0
   19.9017   15.4878    5.5262 H   0  0  0  0  0  0  0  0  0  0  0  0
   21.5491   16.2038    5.5262 H   0  0  0  0  0  0  0  0  0  0  0  0
   16.6814   17.4922    5.8072 H   0  0  0  0  0  0  0  0  0  0  0  0
   15.7791   16.8830    4.4192 H   0  0  0  0  0  0  0  0  0  0  0  0
  2  1  1  0
  3  2  1  0
  4  3  2  0
  5  3  1  0
  6  5  1  0
  8  7  1  0
  8  6  1  0
  9  1  1  0
 10  9  1  0
 11 10  1  0
 12 10  1  0
 13 10  1  0
 14  1  1  0
 15 14  1  0
 16 15  2  0
 17 15  1  0
  1 18  1  1
  5 19  1  0
  5 20  1  0
  6 21  1  0
  6 22  1  0
  7 23  1  0
  7 24  1  0
  7 25  1  0
  8 26  1  0
  8 27  1  0
  9 28  1  0
  9 29  1  0
 11 30  1  0
 11 31  1  0
 11 32  1  0
 12 33  1  0
 12 34  1  0
 12 35  1  0
 13 36  1  0
 13 37  1  0
 13 38  1  0
 14 39  1  0
 14 40  1  0
M  CHG  2  10   1  17  -1
M  END
$$$$
=
     RDKit          3D

 45 49  0  0  0  0  0  0  0  0999 V2000
   12.0310   13.5140    4.0260 C   0  0  0  0  0  0  0  0  0  0  0  0
   12.8930   12.4680    3.6540 C   0  0  0  0  0  0  0  0  0  0  0  0
   14.2750   12.6610    3.5200 C   0  0  0  0  0  0  0  0  0  0  0  0
   14.8340   13.9070    3.7720 C   0  0  0  0  0  0  0  0  0  0  0  0
   14.0060   14.9700    4.1160 C   0  0  0  0  0  0  0  0  0  0  0  0
   12.6240   14.7700    4.2480 C   0  0  0  0  0  0  0  0  0  0  0  0
    6.1430   12.8870    5.2880 C   0  0  0  0  0  0  0  0  0  0  0  0
    6.0930   12.4690    3.9320 C   0  0  0  0  0  0  0  0  0  0  0  0
    7.2410   12.4250    3.1370 C   0  0  0  0  0  0  0  0  0  0  0  0
    8.4310   12.8060    3.7270 C   0  0  0  0  0  0  0  0  0  0  0  0
    8.5010   13.2130    5.0390 C   0  0  0  0  0  0  0  0  0  0  0  0
    7.3800   13.2650    5.8460 C   0  0  0  0  0  0  0  0  0  0  0  0
    9.8950   13.5400    5.3270 C   0  0  0  0  0  0  0  0  0  0  0  0
   10.2420   13.9390    6.4260 O   0  0  0  0  0  0  0  0  0  0  0  0
   10.6190   13.3130    4.1680 N   0  0  0  0  0  0  0  0  0  0  0  0
    9.7750   12.8690    3.1670 C   0  0  0  0  0  0  0  0  0  0  0  0
    9.9840   12.5550    2.0070 O   0  0  0  0  0  0  0  0  0  0  0  0
    4.3870   14.0680    6.3710 O   0  0  0  0  0  1  0  0  0  0  0  0
    4.8780   12.9240    6.1260 C   0  0  0  0  0  0  0  0  0  0  0  0
    4.4150   11.8080    6.5130 O   0  0  0  0  0  0  0  0  0  0  0  0
   16.1900   14.0390    3.5950 O   0  0  0  0  0  0  0  0  0  0  0  0
   16.8060   15.1050    4.2140 C   0  0  0  0  0  0  0  0  0  0  0  0
   16.3460   15.6460    5.4140 C   0  0  0  0  0  0  0  0  0  0  0  0
   17.0380   16.7060    6.0050 C   0  0  0  0  0  0  0  0  0  0  0  0
   18.2030   17.2220    5.4140 C   0  0  0  0  0  0  0  0  0  0  0  0
   18.6790   16.6540    4.2090 C   0  0  0  0  0  0  0  0  0  0  0  0
   17.9740   15.5890    3.6240 C   0  0  0  0  0  0  0  0  0  0  0  0
   19.8470   17.1660    3.6230 C   0  0  0  0  0  0  0  0  0  0  0  0
   20.5370   18.2260    4.2140 C   0  0  0  0  0  0  0  0  0  0  0  0
   20.0680   18.7850    5.3990 C   0  0  0  0  0  0  0  0  0  0  0  0
   18.9080   18.2860    5.9950 C   0  0  0  0  0  0  0  0  0  0  0  0
   12.4714   11.4702    3.4627 H   0  0  0  0  0  0  0  0  0  0  0  0
   14.9186   11.8229    3.2143 H   0  0  0  0  0  0  0  0  0  0  0  0
   14.4353   15.9686    4.2847 H   0  0  0  0  0  0  0  0  0  0  0  0
   11.9859   15.6194    4.5332 H   0  0  0  0  0  0  0  0  0  0  0  0
    5.1271   12.1727    3.4969 H   0  0  0  0  0  0  0  0  0  0  0  0
    7.1994   12.1010    2.0866 H   0  0  0  0  0  0  0  0  0  0  0  0
    7.4518   13.5921    6.8938 H   0  0  0  0  0  0  0  0  0  0  0  0
   15.4427   15.2402    5.8930 H   0  0  0  0  0  0  0  0  0  0  0  0
   16.6661   17.1416    6.9441 H   0  0  0  0  0  0  0  0  0  0  0  0
   18.3455   15.1335    2.6942 H   0  0  0  0  0  0  0  0  0  0  0  0
   20.2231   16.7270    2.6872 H   0  0  0  0  0  0  0  0  0  0  0  0
   21.4504   18.6189    3.7435 H   0  0  0  0  0  0  0  0  0  0  0  0
   20.6110   19.6198    5.8661 H   0  0  0  0  0  0  0  0  0  0  0  0
   18.5428   18.7328    6.9315 H   0  0  0  0  0  0  0  0  0  0  0  0
  2  1  2  0
  3  2  1  0
  4  3  2  0
  5  4  1  0
  6  5  2  0
  6  1  1  0
  8  7  2  0
  9  8  1  0
 10  9  2  0
 11 10  1  0
 12 11  2  0
 12  7  1  0
 13 11  1  0
 14 13  2  0
 15 13  1  0
 15  1  1  0
 16 15  1  0
 16 10  1  0
 17 16  2  0
 19 18  1  0
 19  7  1  0
 20 19  2  0
 21  4  1  0
 22 21  1  0
 23 22  2  0
 24 23  1  0
 25 24  2  0
 26 25  1  0
 27 22  1  0
 27 26  2  0
 28 26  1  0
 29 28  2  0
 30 29  1  0
 31 30  2  0
 31 25  1  0
  2 32  1  0
  3 33  1  0
  5 34  1  0
  6 35  1  0
  8 36  1  0
  9 37  1  0
 12 38  1  0
 23 39  1  0
 24 40  1  0
 27 41  1  0
 28 42  1  0
 29 43  1  0
 30 44  1  0
 31 45  1  0
M  CHG  1  18  -1
M  END
$$$$
=
     RDKit          3D

 19 19  0  0  0  0  0  0  0  0999 V2000
   15.1450   13.1990    3.2970 C   0  0  0  0  0  0  0  0  0  0  0  0
   16.1990   12.5580    2.7800 N   0  0  0  0  0  0  0  0  0  0  0  0
   17.4060   13.0940    3.0540 C   0  0  0  0  0  0  0  0  0  0  0  0
   17.6040   14.2280    3.8160 C   0  0  0  0  0  0  0  0  0  0  0  0
   16.4560   14.8400    4.2960 C   0  0  0  0  0  0  0  0  0  0  0  0
   15.2150   14.3140    4.0380 N   0  0  0  0  0  0  0  0  0  0  0  0
   16.5000   16.1400    5.0960 C   0  0  0  0  0  0  0  0  0  0  0  0
   17.4350   17.0440    4.6800 F   0  0  0  0  0  0  0  0  0  0  0  0
   16.6320   15.9810    6.4450 F   0  0  0  0  0  0  0  0  0  0  0  0
   15.3160   16.8370    4.9710 F   0  0  0  0  0  0  0  0  0  0  0  0
   18.9830   14.7100    4.0820 C   0  0  0  0  0  0  0  0  0  0  0  0
   19.4740   14.4280    5.2100 O   0  0  0  0  0  0  0  0  0  0  0  0
   19.5540   15.3380    3.1420 O   0  0  0  0  0  1  0  0  0  0  0  0
   12.5190   13.8320    3.8100 C   0  0  0  0  0  0  0  0  0  0  0  0
   13.5120   12.5610    2.9930 S   0  0  0  0  0  0  0  0  0  0  0  0
   18.2942   12.5928    2.6417 H   0  0  0  0  0  0  0  0  0  0  0  0
   12.6061   13.7205    4.9009 H   0  0  0  0  0  0  0  0  0  0  0  0
   12.8811   14.8274    3.5131 H   0  0  0  0  0  0  0  0  0  0  0  0
   11.4656   13.7215    3.5131 H   0  0  0  0  0  0  0  0  0  0  0  0
  2  1  2  0
  3  2  1  0
  4  3  2  0
  5  4  1  0
  6  1  1  0
  6  5  2  0
  7  5  1  0
  8  7  1  0
  9  7  1  0
 10  7  1  0
 11  4  1  0
 12 11  2  0
 13 11  1  0
 15 14  1  0
 15  1  1  0
  3 16  1  0
 14 17  1  0
 14 18  1  0
 14 19  1  0
M  CHG  1  13  -1
M  END
$$$$
=
     RDKit          3D

 31 31  0  0  0  0  0  0  0  0999 V2000
   18.5260   16.3880    5.3080 C   0  0  0  0  0  0  0  0  0  0  0  0
   17.4180   16.3610    6.1560 C   0  0  0  0  0  0  0  0  0  0  0  0
   16.1870   15.8760    5.6950 C   0  0  0  0  0  0  0  0  0  0  0  0
   16.0400   15.3930    4.3870 C   0  0  0  0  0  0  0  0  0  0  0  0
   17.1470   15.4290    3.5360 C   0  0  0  0  0  0  0  0  0  0  0  0
   18.3680   15.9370    3.9890 C   0  0  0  0  0  0  0  0  0  0  0  0
   14.7140   14.9290    3.9550 C   0  0  0  0  0  0  0  0  0  0  0  0
   13.6960   14.6130    4.7700 C   0  0  0  0  0  0  0  0  0  0  0  0
   12.3430   14.1400    4.2360 C   0  0  0  0  0  0  0  0  0  0  0  0
   11.3480   14.8760    4.4890 O   0  0  0  0  0  0  0  0  0  0  0  0
   12.4020   13.0500    3.5960 O   0  0  0  0  0  1  0  0  0  0  0  0
   19.7720   16.8470    5.6490 O   0  0  0  0  0  0  0  0  0  0  0  0
   19.9910   18.2510    5.5640 C   0  0  0  0  0  0  0  0  0  0  0  0
   22.5180   18.6950    4.8160 C   0  0  0  0  0  0  0  0  0  0  0  0
   21.3820   18.4940    5.1520 C   0  0  0  0  0  0  0  0  0  0  0  0
   19.4360   15.9280    3.1230 O   0  0  0  0  0  0  0  0  0  0  0  0
   19.2220   16.8920    2.0870 C   0  0  0  0  0  0  0  0  0  0  0  0
   20.5350   17.6120    1.8400 C   0  0  0  0  0  0  0  0  0  0  0  0
   17.5115   16.7221    7.1908 H   0  0  0  0  0  0  0  0  0  0  0  0
   15.3199   15.8741    6.3718 H   0  0  0  0  0  0  0  0  0  0  0  0
   17.0576   15.0560    2.5050 H   0  0  0  0  0  0  0  0  0  0  0  0
   14.5417   14.8327    2.8729 H   0  0  0  0  0  0  0  0  0  0  0  0
   13.8391   14.6968    5.8574 H   0  0  0  0  0  0  0  0  0  0  0  0
   19.3052   18.6871    4.8228 H   0  0  0  0  0  0  0  0  0  0  0  0
   19.8066   18.7161    6.5436 H   0  0  0  0  0  0  0  0  0  0  0  0
   23.5580   18.8790    4.5084 H   0  0  0  0  0  0  0  0  0  0  0  0
   18.8950   16.3853    1.1670 H   0  0  0  0  0  0  0  0  0  0  0  0
   18.4428   17.6086    2.3859 H   0  0  0  0  0  0  0  0  0  0  0  0
   21.0002   17.8671    2.8036 H   0  0  0  0  0  0  0  0  0  0  0  0
   21.2101   16.9579    1.2687 H   0  0  0  0  0  0  0  0  0  0  0  0
   20.3464   18.5329    1.2687 H   0  0  0  0  0  0  0  0  0  0  0  0
  2  1  2  0
  3  2  1  0
  4  3  2  0
  5  4  1  0
  6  5  2  0
  6  1  1  0
  7  4  1  0
  8  7  2  0
  9  8  1  0
 10  9  2  0
 11  9  1  0
 12  1  1  0
 13 12  1  0
 15 13  1  0
 15 14  3  0
 16  6  1  0
 17 16  1  0
 18 17  1  0
  2 19  1  0
  3 20  1  0
  5 21  1  0
  7 22  1  0
  8 23  1  0
 13 24  1  0
 13 25  1  0
 14 26  1  0
 17 27  1  0
 17 28  1  0
 18 29  1  0
 18 30  1  0
 18 31  1  0
M  CHG  1  11  -1
M  END
$$$$
=
     RDKit          3D

 34 35  0  0  0  0  0  0  0  0999 V2000
   18.5260   15.7070    4.8250 C   0  0  2  0  0  0  0  0  0  0  0  0
   17.7690   14.6490    4.0150 C   0  0  0  0  0  0  0  0  0  0  0  0
   18.3700   13.4360    3.6450 C   0  0  0  0  0  0  0  0  0  0  0  0
   17.6510   12.4680    2.9400 C   0  0  0  0  0  0  0  0  0  0  0  0
   16.3200   12.7000    2.5970 C   0  0  0  0  0  0  0  0  0  0  0  0
   15.7110   13.9010    2.9530 C   0  0  0  0  0  0  0  0  0  0  0  0
   16.4300   14.8700    3.6570 C   0  0  0  0  0  0  0  0  0  0  0  0
   17.5910   16.2260    5.9370 C   0  0  0  0  0  0  0  0  0  0  0  0
   17.4280   15.4340    6.9120 O   0  0  0  0  0  0  0  0  0  0  0  0
   17.1110   17.3860    5.7720 O   0  0  0  0  0  1  0  0  0  0  0  0
   19.0850   16.8520    3.9480 C   0  0  1  0  0  0  0  0  0  0  0  0
   20.2310   17.6500    4.6060 C   0  0  0  0  0  0  0  0  0  0  0  0
   21.3120   18.1940    3.6760 C   0  0  0  0  0  0  0  0  0  0  0  0
   22.4710   18.5340    4.6070 C   0  0  0  0  0  0  0  0  0  0  0  0
   22.3380   17.5980    5.8050 C   0  0  0  0  0  0  0  0  0  0  0  0
   21.0600   16.7980    5.5780 C   0  0  0  0  0  0  0  0  0  0  0  0
   19.6580   16.3010    2.7350 O   0  0  0  0  0  0  0  0  0  0  0  0
   19.4150   15.2421    5.2761 H   0  0  0  0  0  0  0  0  0  0  0  0
   19.4196   13.2453    3.9133 H   0  0  0  0  0  0  0  0  0  0  0  0
   18.1353   11.5222    2.6554 H   0  0  0  0  0  0  0  0  0  0  0  0
   15.7517   11.9360    2.0462 H   0  0  0  0  0  0  0  0  0  0  0  0
   14.6619   14.0868    2.6793 H   0  0  0  0  0  0  0  0  0  0  0  0
   15.9417   15.8160    3.9336 H   0  0  0  0  0  0  0  0  0  0  0  0
   18.2274   17.5186    3.7747 H   0  0  0  0  0  0  0  0  0  0  0  0
   19.6540   18.4661    5.0653 H   0  0  0  0  0  0  0  0  0  0  0  0
   21.6128   17.4333    2.9406 H   0  0  0  0  0  0  0  0  0  0  0  0
   20.9695   19.0632    3.0953 H   0  0  0  0  0  0  0  0  0  0  0  0
   23.4317   18.3682    4.0974 H   0  0  0  0  0  0  0  0  0  0  0  0
   22.4430   19.5894    4.9157 H   0  0  0  0  0  0  0  0  0  0  0  0
   23.2054   16.9238    5.8606 H   0  0  0  0  0  0  0  0  0  0  0  0
   22.2979   18.1591    6.7503 H   0  0  0  0  0  0  0  0  0  0  0  0
   20.5194   16.6543    6.5252 H   0  0  0  0  0  0  0  0  0  0  0  0
   21.2644   15.7935    5.1790 H   0  0  0  0  0  0  0  0  0  0  0  0
   20.3511   15.6345    2.9706 H   0  0  0  0  0  0  0  0  0  0  0  0
  2  1  1  0
  3  2  2  0
  4  3  1  0
  5  4  2  0
  6  5  1  0
  7  6  2  0
  7  2  1  0
  8  1  1  0
  9  8  2  0
 10  8  1  0
 11  1  1  0
 12 11  1  0
 13 12  1  0
 14 13  1  0
 15 14  1  0
 16 12  1  0
 16 15  1  0
 17 11  1  0
  1 18  1  1
  3 19  1  0
  4 20  1  0
  5 21  1  0
  6 22  1  0
  7 23  1  0
 11 24  1  6
 12 25  1  0
 13 26  1  0
 13 27  1  0
 14 28  1  0
 14 29  1  0
 15 30  1  0
 15 31  1  0
 16 32  1  0
 16 33  1  0
 17 34  1  0
M  CHG  1  10  -1
M  END
$$$$
=
     RDKit          3D

 19 20  0  0  0  0  0  0  0  0999 V2000
   20.0720   16.1610    4.8140 C   0  0  0  0  0  0  0  0  0  0  0  0
   21.5150   15.7860    5.6450 S   0  0  0  0  0  0  0  0  0  0  0  0
   20.7210   14.9140    6.8310 N   0  0  0  0  0  0  0  0  0  0  0  0
   19.4160   14.8620    6.6280 N   0  0  0  0  0  0  0  0  0  0  0  0
   19.0260   15.5510    5.4720 C   0  0  0  0  0  0  0  0  0  0  0  0
   17.5140   15.5110    5.0570 C   0  0  0  0  0  0  0  0  0  0  0  0
   16.4690   16.2670    5.5380 C   0  0  0  0  0  0  0  0  0  0  0  0
   15.3420   15.8390    4.8150 C   0  0  0  0  0  0  0  0  0  0  0  0
   15.6330   14.8880    3.9250 N   0  0  0  0  0  0  0  0  0  0  0  0
   16.9630   14.6990    4.0980 N   0  0  0  0  0  0  0  0  0  0  0  0
   17.6330   13.7060    3.2950 C   0  0  0  0  0  0  0  0  0  0  0  0
   19.7220   16.5000    2.4640 O   0  0  0  0  0  1  0  0  0  0  0  0
   20.0660   17.0490    3.5530 C   0  0  0  0  0  0  0  0  0  0  0  0
   20.3840   18.2640    3.7230 O   0  0  0  0  0  0  0  0  0  0  0  0
   16.5076   17.0398    6.3199 H   0  0  0  0  0  0  0  0  0  0  0  0
   14.3304   16.2438    4.9663 H   0  0  0  0  0  0  0  0  0  0  0  0
   18.1263   12.9748    3.9523 H   0  0  0  0  0  0  0  0  0  0  0  0
   16.8973   13.1905    2.6601 H   0  0  0  0  0  0  0  0  0  0  0  0
   18.3864   14.1952    2.6601 H   0  0  0  0  0  0  0  0  0  0  0  0
  2  1  1  0
  3  2  1  0
  4  3  2  0
  5  1  2  0
  5  4  1  0
  6  5  1  0
  7  6  2  0
  8  7  1  0
  9  8  2  0
 10  9  1  0
 10  6  1  0
 11 10  1  0
 13  1  1  0
 13 12  1  0
 14 13  2  0
  7 15  1  0
  8 16  1  0
 11 17  1  0
 11 18  1  0
 11 19  1  0
M  CHG  1  12  -1
M  END
$$$$
=
     RDKit          3D

 17 18  0  0  0  0  0  0  0  0999 V2000
   19.5760   15.9820    3.8600 C   0  0  0  0  0  0  0  0  0  0  0  0
   20.4100   15.8720    4.9980 C   0  0  0  0  0  0  0  0  0  0  0  0
   21.3870   16.8450    5.1880 C   0  0  0  0  0  0  0  0  0  0  0  0
   22.2740   16.8960    6.2210 O   0  0  0  0  0  0  0  0  0  0  0  0
   23.0460   17.9980    6.0250 C   0  0  0  0  0  0  0  0  0  0  0  0
   22.6690   18.6580    4.8780 C   0  0  0  0  0  0  0  0  0  0  0  0
   21.5920   17.9160    4.3270 C   0  0  0  0  0  0  0  0  0  0  0  0
   20.7670   18.0270    3.1980 C   0  0  0  0  0  0  0  0  0  0  0  0
   19.7720   17.0580    2.9840 C   0  0  0  0  0  0  0  0  0  0  0  0
   19.0180   17.2230    1.8880 F   0  0  0  0  0  0  0  0  0  0  0  0
   17.2920   15.2650    3.8030 O   0  0  0  0  0  1  0  0  0  0  0  0
   18.5070   14.9400    3.6290 C   0  0  0  0  0  0  0  0  0  0  0  0
   18.9090   13.7860    3.2700 O   0  0  0  0  0  0  0  0  0  0  0  0
   20.2898   15.0428    5.7107 H   0  0  0  0  0  0  0  0  0  0  0  0
   23.8602   18.3180    6.6919 H   0  0  0  0  0  0  0  0  0  0  0  0
   23.1137   19.5774    4.4696 H   0  0  0  0  0  0  0  0  0  0  0  0
   20.8969   18.8597    2.4911 H   0  0  0  0  0  0  0  0  0  0  0  0
  2  1  2  0
  3  2  1  0
  4  3  1  0
  5  4  1  0
  6  5  2  0
  7  3  2  0
  7  6  1  0
  8  7  1  0
  9  1  1  0
  9  8  2  0
 10  9  1  0
 12 11  1  0
 12  1  1  0
 13 12  2  0
  2 14  1  0
  5 15  1  0
  6 16  1  0
  8 17  1  0
M  CHG  1  11  -1
M  END
$$$$
=
     RDKit          3D

 20 20  0  0  0  0  0  0  0  0999 V2000
   18.9880   15.4050    4.0510 C   0  0  0  0  0  0  0  0  0  0  0  0
   17.7230   15.9180    4.2880 C   0  0  0  0  0  0  0  0  0  0  0  0
   16.6220   15.1290    3.9650 C   0  0  0  0  0  0  0  0  0  0  0  0
   16.8120   13.8560    3.4170 C   0  0  0  0  0  0  0  0  0  0  0  0
   18.1250   13.4420    3.2230 C   0  0  0  0  0  0  0  0  0  0  0  0
   19.2230   14.1850    3.5240 N   0  0  0  0  0  0  0  0  0  0  0  0
   15.6620   12.9640    3.0450 C   0  0  0  0  0  0  0  0  0  0  0  0
   15.9050   12.0150    2.2350 O   0  0  0  0  0  0  0  0  0  0  0  0
   14.5360   13.2260    3.5720 O   0  0  0  0  0  1  0  0  0  0  0  0
   20.0510   16.2310    4.3680 O   0  0  0  0  0  0  0  0  0  0  0  0
   21.1320   15.5240    4.9850 C   0  0  0  0  0  0  0  0  0  0  0  0
   20.2720   14.3420    6.8360 F   0  0  0  0  0  0  0  0  0  0  0  0
   20.9010   15.4990    6.4850 C   0  0  0  0  0  0  0  0  0  0  0  0
   17.5920   16.9213    4.7196 H   0  0  0  0  0  0  0  0  0  0  0  0
   15.6038   15.5064    4.1406 H   0  0  0  0  0  0  0  0  0  0  0  0
   18.2870   12.4416    2.7953 H   0  0  0  0  0  0  0  0  0  0  0  0
   21.1700   14.4948    4.5987 H   0  0  0  0  0  0  0  0  0  0  0  0
   22.0853   16.0245    4.7600 H   0  0  0  0  0  0  0  0  0  0  0  0
   21.8686   15.5608    7.0046 H   0  0  0  0  0  0  0  0  0  0  0  0
   20.2720   16.3552    6.7699 H   0  0  0  0  0  0  0  0  0  0  0  0
  2  1  2  0
  3  2  1  0
  4  3  2  0
  5  4  1  0
  6  5  2  0
  6  1  1  0
  7  4  1  0
  8  7  2  0
  9  7  1  0
 10  1  1  0
 11 10  1  0
 13 11  1  0
 13 12  1  0
  2 14  1  0
  3 15  1  0
  5 16  1  0
 11 17  1  0
 11 18  1  0
 13 19  1  0
 13 20  1  0
M  CHG  1   9  -1
M  END
$$$$
=
     RDKit          3D

 38 38  0  0  0  0  0  0  0  0999 V2000
   17.3820   16.4370    4.2430 C   0  0  2  0  0  0  0  0  0  0  0  0
   16.6460   15.1650    3.8240 C   0  0  0  0  0  0  0  0  0  0  0  0
   17.3710   14.0430    3.3930 C   0  0  0  0  0  0  0  0  0  0  0  0
   16.7110   12.8780    2.9950 C   0  0  0  0  0  0  0  0  0  0  0  0
   15.3200   12.8320    3.0270 C   0  0  0  0  0  0  0  0  0  0  0  0
   14.5820   13.9300    3.4490 C   0  0  0  0  0  0  0  0  0  0  0  0
   15.2430   15.0940    3.8470 C   0  0  0  0  0  0  0  0  0  0  0  0
   14.6410   11.7100    2.6460 O   0  0  0  0  0  0  0  0  0  0  0  0
   18.8250   16.2320    4.2180 N   0  0  0  0  0  0  0  0  0  0  0  0
   19.6630   17.0780    3.5580 C   0  0  0  0  0  0  0  0  0  0  0  0
   19.3390   17.9040    2.7190 O   0  0  0  0  0  0  0  0  0  0  0  0
   20.9270   16.8650    3.9990 O   0  0  0  0  0  0  0  0  0  0  0  0
   21.4190   17.5190    5.1920 C   0  0  0  0  0  0  0  0  0  0  0  0
   21.7970   16.5000    6.2740 C   0  0  0  0  0  0  0  0  0  0  0  0
   20.4230   18.5620    5.7100 C   0  0  0  0  0  0  0  0  0  0  0  0
   22.6960   18.2460    4.7390 C   0  0  0  0  0  0  0  0  0  0  0  0
   16.9010   16.8620    5.6300 C   0  0  0  0  0  0  0  0  0  0  0  0
   16.2190   15.2460    7.1910 O   0  0  0  0  0  1  0  0  0  0  0  0
   17.2210   15.7160    6.5750 C   0  0  0  0  0  0  0  0  0  0  0  0
   18.4340   15.3780    6.6300 O   0  0  0  0  0  0  0  0  0  0  0  0
   17.1576   17.2427    3.5286 H   0  0  0  0  0  0  0  0  0  0  0  0
   18.4700   14.0815    3.3684 H   0  0  0  0  0  0  0  0  0  0  0  0
   17.2864   12.0029    2.6586 H   0  0  0  0  0  0  0  0  0  0  0  0
   13.4832   13.8832    3.4697 H   0  0  0  0  0  0  0  0  0  0  0  0
   14.6593   15.9641    4.1819 H   0  0  0  0  0  0  0  0  0  0  0  0
   13.6515   11.6962    2.6756 H   0  0  0  0  0  0  0  0  0  0  0  0
   19.2228   15.4222    4.7149 H   0  0  0  0  0  0  0  0  0  0  0  0
   21.6329   16.9424    7.2677 H   0  0  0  0  0  0  0  0  0  0  0  0
   21.1725   15.6010    6.1652 H   0  0  0  0  0  0  0  0  0  0  0  0
   22.8567   16.2257    6.1652 H   0  0  0  0  0  0  0  0  0  0  0  0
   20.4268   18.5580    6.8100 H   0  0  0  0  0  0  0  0  0  0  0  0
   20.7132   19.5586    5.3459 H   0  0  0  0  0  0  0  0  0  0  0  0
   19.4141   18.3181    5.3459 H   0  0  0  0  0  0  0  0  0  0  0  0
   23.2660   18.5705    5.6220 H   0  0  0  0  0  0  0  0  0  0  0  0
   23.3121   17.5633    4.1354 H   0  0  0  0  0  0  0  0  0  0  0  0
   22.4234   19.1243    4.1354 H   0  0  0  0  0  0  0  0  0  0  0  0
   17.4256   17.7744    5.9498 H   0  0  0  0  0  0  0  0  0  0  0  0
   15.8229   17.0802    5.6245 H   0  0  0  0  0  0  0  0  0  0  0  0
  2  1  1  0
  3  2  2  0
  4  3  1  0
  5  4  2  0
  6  5  1  0
  7  6  2  0
  7  2  1  0
  8  5  1  0
  9  1  1  0
 10  9  1  0
 11 10  2  0
 12 10  1  0
 13 12  1  0
 14 13  1  0
 15 13  1  0
 16 13  1  0
 17  1  1  0
 19 18  1  0
 19 17  1  0
 20 19  2  0
  1 21  1  6
  3 22  1  0
  4 23  1  0
  6 24  1  0
  7 25  1  0
  8 26  1  0
  9 27  1  0
 14 28  1  0
 14 29  1  0
 14 30  1  0
 15 31  1  0
 15 32  1  0
 15 33  1  0
 16 34  1  0
 16 35  1  0
 16 36  1  0
 17 37  1  0
 17 38  1  0
M  CHG  1  18  -1
M  END
$$$$
=
     RDKit          3D

 52 54  0  0  0  0  0  0  0  0999 V2000
   24.4040   26.7740   15.8590 C   0  0  0  0  0  0  0  0  0  0  0  0
   23.9710   26.6220   14.5460 C   0  0  0  0  0  0  0  0  0  0  0  0
   22.2740   26.6640   14.4350 S   0  0  0  0  0  0  0  0  0  0  0  0
   22.0610   26.9500   16.0960 C   0  0  0  0  0  0  0  0  0  0  0  0
   23.2710   26.9720   16.7680 C   0  0  0  0  0  0  0  0  0  0  0  0
   23.4140   27.1560   18.2500 C   0  0  0  0  0  0  0  0  0  0  0  0
   20.7030   27.1430   16.6130 C   0  0  0  0  0  0  0  0  0  0  0  0
   20.0790   26.1550   17.3860 C   0  0  0  0  0  0  0  0  0  0  0  0
   18.7890   26.3550   17.8830 C   0  0  0  0  0  0  0  0  0  0  0  0
   18.1130   27.5440   17.6130 C   0  0  0  0  0  0  0  0  0  0  0  0
   18.7240   28.5340   16.8450 C   0  0  0  0  0  0  0  0  0  0  0  0
   20.0140   28.3350   16.3470 C   0  0  0  0  0  0  0  0  0  0  0  0
   26.4610   27.9470   16.2870 N   0  0  0  0  0  0  0  0  0  0  0  0
   25.7990   26.7410   16.3450 C   0  0  0  0  0  0  0  0  0  0  0  0
   26.3120   25.6660   16.6490 O   0  0  0  0  0  0  0  0  0  0  0  0
   28.4730   29.0780   15.5930 C   0  0  0  0  0  0  0  0  0  0  0  0
   29.8450   29.3370   15.6850 C   0  0  0  0  0  0  0  0  0  0  0  0
   30.5950   28.7400   16.6940 C   0  0  0  0  0  0  0  0  0  0  0  0
   29.9750   27.8780   17.5970 C   0  0  0  0  0  0  0  0  0  0  0  0
   28.6060   27.6030   17.4900 C   0  0  0  0  0  0  0  0  0  0  0  0
   27.8390   28.1940   16.4830 C   0  0  0  0  0  0  0  0  0  0  0  0
   28.2950   29.3450   13.3070 C   0  0  0  0  0  0  0  0  0  0  0  0
   27.7250   29.6460   14.5860 O   0  0  0  0  0  0  0  0  0  0  0  0
   24.7340   26.4950   13.3900 N   0  0  0  0  0  0  0  0  0  0  0  0
   25.3650   25.3540   12.9240 C   0  0  0  0  0  0  0  0  0  0  0  0
   25.4470   24.2680   13.5000 O   0  0  0  0  0  0  0  0  0  0  0  0
   26.1010   25.5250   11.5980 C   0  0  0  0  0  0  0  0  0  0  0  0
   27.6120   25.6840   11.7070 C   0  0  0  0  0  0  0  0  0  0  0  0
   28.2260   24.3000   11.5730 C   0  0  0  0  0  0  0  0  0  0  0  0
   27.9620   23.6760   10.5150 O   0  0  0  0  0  0  0  0  0  0  0  0
   28.8970   23.9340   12.5840 O   0  0  0  0  0  1  0  0  0  0  0  0
   22.8203   26.3920   18.7733 H   0  0  0  0  0  0  0  0  0  0  0  0
   24.4725   27.0543   18.5317 H   0  0  0  0  0  0  0  0  0  0  0  0
   23.0541   28.1566   18.5317 H   0  0  0  0  0  0  0  0  0  0  0  0
   20.6085   25.2156   17.6029 H   0  0  0  0  0  0  0  0  0  0  0  0
   18.3060   25.5736   18.4880 H   0  0  0  0  0  0  0  0  0  0  0  0
   17.0976   27.7009   18.0059 H   0  0  0  0  0  0  0  0  0  0  0  0
   18.1904   29.4718   16.6311 H   0  0  0  0  0  0  0  0  0  0  0  0
   20.4927   29.1190   15.7419 H   0  0  0  0  0  0  0  0  0  0  0  0
   25.8805   28.7709   16.0746 H   0  0  0  0  0  0  0  0  0  0  0  0
   30.3292   30.0102   14.9623 H   0  0  0  0  0  0  0  0  0  0  0  0
   31.6720   28.9474   16.7785 H   0  0  0  0  0  0  0  0  0  0  0  0
   30.5650   27.4106   18.3991 H   0  0  0  0  0  0  0  0  0  0  0  0
   28.1305   26.9156   18.2051 H   0  0  0  0  0  0  0  0  0  0  0  0
   29.2599   28.8355   13.4463 H   0  0  0  0  0  0  0  0  0  0  0  0
   27.6121   28.6900   12.7462 H   0  0  0  0  0  0  0  0  0  0  0  0
   28.4508   30.2784   12.7462 H   0  0  0  0  0  0  0  0  0  0  0  0
   24.8416   27.3441   12.8169 H   0  0  0  0  0  0  0  0  0  0  0  0
   25.8965   24.6388   10.9792 H   0  0  0  0  0  0  0  0  0  0  0  0
   25.7275   26.4633   11.1620 H   0  0  0  0  0  0  0  0  0  0  0  0
   27.9801   26.3380   10.9028 H   0  0  0  0  0  0  0  0  0  0  0  0
   27.8860   26.1386   12.6705 H   0  0  0  0  0  0  0  0  0  0  0  0
  2  1  2  0
  3  2  1  0
  4  3  1  0
  5  4  2  0
  5  1  1  0
  6  5  1  0
  7  4  1  0
  8  7  2  0
  9  8  1  0
 10  9  2  0
 11 10  1  0
 12  7  1  0
 12 11  2  0
 14  1  1  0
 14 13  1  0
 15 14  2  0
 17 16  2  0
 18 17  1  0
 19 18  2  0
 20 19  1  0
 21 13  1  0
 21 16  1  0
 21 20  2  0
 23 22  1  0
 23 16  1  0
 24  2  1  0
 25 24  1  0
 26 25  2  0
 27 25  1  0
 28 27  1  0
 29 28  1  0
 30 29  2  0
 31 29  1  0
  6 32  1  0
  6 33  1  0
  6 34  1  0
  8 35  1  0
  9 36  1  0
 10 37  1  0
 11 38  1  0
 12 39  1  0
 13 40  1  0
 17 41  1  0
 18 42  1  0
 19 43  1  0
 20 44  1  0
 22 45  1  0
 22 46  1  0
 22 47  1  0
 24 48  1  0
 27 49  1  0
 27 50  1  0
 28 51  1  0
 28 52  1  0
M  CHG  1  31  -1
M  END
$$$$
=
     RDKit          3D

 27 27  0  0  0  0  0  0  0  0999 V2000
   15.5270   15.3600    6.1400 O   0  0  0  0  0  0  0  0  0  0  0  0
   15.8800   15.3910    4.9640 C   0  0  0  0  0  0  0  0  0  0  0  0
   17.0320   15.9960    4.5220 N   0  0  0  0  0  0  0  0  0  0  0  0
   15.0680   14.7700    3.8330 C   0  0  0  0  0  0  0  0  0  0  0  0
   13.7940   14.0670    4.3120 C   0  0  0  0  0  0  0  0  0  0  0  0
   13.5940   12.9360    3.3170 C   0  0  0  0  0  0  0  0  0  0  0  0
   15.0080   12.4340    3.0930 C   0  0  0  0  0  0  0  0  0  0  0  0
   15.8550   13.7020    3.0510 C   0  0  0  0  0  0  0  0  0  0  0  0
   17.8160   16.9080    5.3330 C   0  0  0  0  0  0  0  0  0  0  0  0
   19.2580   16.9680    4.8590 C   0  0  0  0  0  0  0  0  0  0  0  0
   19.4030   16.2710    3.5070 C   0  0  0  0  0  0  0  0  0  0  0  0
   19.2020   17.0080    2.5010 O   0  0  0  0  0  0  0  0  0  0  0  0
   19.6960   15.0380    3.5550 O   0  0  0  0  0  1  0  0  0  0  0  0
   17.3554   15.7914    3.5657 H   0  0  0  0  0  0  0  0  0  0  0  0
   14.8220   15.6344    3.1987 H   0  0  0  0  0  0  0  0  0  0  0  0
   13.9260   13.6719    5.3301 H   0  0  0  0  0  0  0  0  0  0  0  0
   12.9299   14.7462    4.3562 H   0  0  0  0  0  0  0  0  0  0  0  0
   12.9547   12.1460    3.7379 H   0  0  0  0  0  0  0  0  0  0  0  0
   13.0919   13.2532    2.3911 H   0  0  0  0  0  0  0  0  0  0  0  0
   15.3251   11.7806    3.9191 H   0  0  0  0  0  0  0  0  0  0  0  0
   15.1013   11.8353    2.1749 H   0  0  0  0  0  0  0  0  0  0  0  0
   16.8314   13.5243    3.5253 H   0  0  0  0  0  0  0  0  0  0  0  0
   16.0462   14.0224    2.0162 H   0  0  0  0  0  0  0  0  0  0  0  0
   17.3755   17.9139    5.2685 H   0  0  0  0  0  0  0  0  0  0  0  0
   17.8067   16.5448    6.3713 H   0  0  0  0  0  0  0  0  0  0  0  0
   19.5634   18.0200    4.7592 H   0  0  0  0  0  0  0  0  0  0  0  0
   19.8972   16.4574    5.5944 H   0  0  0  0  0  0  0  0  0  0  0  0
  2  1  2  0
  3  2  1  0
  4  2  1  0
  5  4  1  0
  6  5  1  0
  7  6  1  0
  8  7  1  0
  8  4  1  0
  9  3  1  0
 10  9  1  0
 11 10  1  0
 12 11  2  0
 13 11  1  0
  3 14  1  0
  4 15  1  0
  5 16  1  0
  5 17  1  0
  6 18  1  0
  6 19  1  0
  7 20  1  0
  7 21  1  0
  8 22  1  0
  8 23  1  0
  9 24  1  0
  9 25  1  0
 10 26  1  0
 10 27  1  0
M  CHG  1  13  -1
M  END
$$$$
=
     RDKit          3D

 26 27  0  0  0  0  0  0  0  0999 V2000
   12.2970   12.8130    2.9140 C   0  0  0  0  0  0  0  0  0  0  0  0
   13.4720   13.0950    3.8360 C   0  0  1  0  0  0  0  0  0  0  0  0
   14.7010   13.0250    3.0670 O   0  0  0  0  0  0  0  0  0  0  0  0
   15.4960   13.9850    3.6390 C   0  0  0  0  0  0  0  0  0  0  0  0
   14.8130   14.8330    4.4950 C   0  0  0  0  0  0  0  0  0  0  0  0
   13.3780   14.4770    4.5010 C   0  0  0  0  0  0  0  0  0  0  0  0
   15.4660   15.8690    5.1430 C   0  0  0  0  0  0  0  0  0  0  0  0
   16.8450   16.0360    4.9350 C   0  0  0  0  0  0  0  0  0  0  0  0
   17.5180   15.1700    4.0440 C   0  0  0  0  0  0  0  0  0  0  0  0
   16.8420   14.1340    3.3900 C   0  0  0  0  0  0  0  0  0  0  0  0
   17.6040   17.1240    5.5650 C   0  0  0  0  0  0  0  0  0  0  0  0
   18.7810   17.5970    5.1220 C   0  0  0  0  0  0  0  0  0  0  0  0
   19.5230   18.7380    5.8200 C   0  0  0  0  0  0  0  0  0  0  0  0
   20.7820   18.7310    5.7320 O   0  0  0  0  0  0  0  0  0  0  0  0
   18.7570   19.5560    6.4060 O   0  0  0  0  0  1  0  0  0  0  0  0
   11.4018   12.5982    3.5161 H   0  0  0  0  0  0  0  0  0  0  0  0
   12.1098   13.6917    2.2793 H   0  0  0  0  0  0  0  0  0  0  0  0
   12.5290   11.9450    2.2793 H   0  0  0  0  0  0  0  0  0  0  0  0
   13.4578   12.3391    4.6350 H   0  0  0  0  0  0  0  0  0  0  0  0
   12.9719   14.4172    5.5215 H   0  0  0  0  0  0  0  0  0  0  0  0
   12.7094   15.1965    4.0056 H   0  0  0  0  0  0  0  0  0  0  0  0
   14.9141   16.5489    5.8087 H   0  0  0  0  0  0  0  0  0  0  0  0
   18.5932   15.3129    3.8611 H   0  0  0  0  0  0  0  0  0  0  0  0
   17.3692   13.4599    2.6988 H   0  0  0  0  0  0  0  0  0  0  0  0
   17.1769   17.5863    6.4671 H   0  0  0  0  0  0  0  0  0  0  0  0
   19.2279   17.1467    4.2234 H   0  0  0  0  0  0  0  0  0  0  0  0
  2  1  1  0
  3  2  1  0
  4  3  1  0
  5  4  2  0
  6  5  1  0
  6  2  1  0
  7  5  1  0
  8  7  2  0
  9  8  1  0
 10  4  1  0
 10  9  2  0
 11  8  1  0
 12 11  2  0
 13 12  1  0
 14 13  2  0
 15 13  1  0
  1 16  1  0
  1 17  1  0
  1 18  1  0
  2 19  1  1
  6 20  1  0
  6 21  1  0
  7 22  1  0
  9 23  1  0
 10 24  1  0
 11 25  1  0
 12 26  1  0
M  CHG  1  15  -1
M  END
$$$$
=
     RDKit          3D

 59 63  0  0  0  0  0  0  0  0999 V2000
   24.3350   25.0390   10.6510 O   0  0  0  0  0  0  0  0  0  0  0  0
   24.7740   25.5220   11.6860 C   0  0  0  0  0  0  0  0  0  0  0  0
   24.0530   26.1350   12.6490 N   0  0  0  0  0  0  0  0  0  0  0  0
   22.6320   26.4790   12.5470 C   0  0  1  0  0  0  0  0  0  0  0  0
   21.8430   25.1940   12.5720 C   0  0  0  0  0  0  0  0  0  0  0  0
   21.9910   24.0980   13.4610 C   0  0  0  0  0  0  0  0  0  0  0  0
   22.9330   23.9560   14.6010 C   0  0  0  0  0  0  0  0  0  0  0  0
   21.1630   23.0950   13.1600 N   0  0  0  0  0  0  0  0  0  0  0  0
   20.3750   23.5670   12.1600 N   0  0  0  0  0  0  0  0  0  0  0  0
   20.8380   24.7930   11.6960 C   0  0  0  0  0  0  0  0  0  0  0  0
   20.3630   25.4950   10.4750 C   0  0  0  0  0  0  0  0  0  0  0  0
   19.2530   22.7730   11.7500 C   0  0  0  0  0  0  0  0  0  0  0  0
   18.1830   22.4800   12.6050 C   0  0  0  0  0  0  0  0  0  0  0  0
   17.1140   21.6950   12.1580 C   0  0  0  0  0  0  0  0  0  0  0  0
   17.1170   21.1950   10.8620 C   0  0  0  0  0  0  0  0  0  0  0  0
   18.1770   21.4530   10.0040 C   0  0  0  0  0  0  0  0  0  0  0  0
   19.2460   22.2350   10.4480 C   0  0  0  0  0  0  0  0  0  0  0  0
   16.0910   20.4440   10.4410 F   0  0  0  0  0  0  0  0  0  0  0  0
   22.1620   27.4370   13.6980 C   0  0  0  0  0  0  0  0  0  0  0  0
   22.8880   27.4010   14.7430 O   0  0  0  0  0  0  0  0  0  0  0  0
   21.1500   28.1550   13.4540 O   0  0  0  0  0  1  0  0  0  0  0  0
   26.0820   25.5240   12.0450 O   0  0  0  0  0  0  0  0  0  0  0  0
   26.5280   26.6290   12.8490 C   0  0  0  0  0  0  0  0  0  0  0  0
   28.0590   26.6990   12.9310 C   0  0  0  0  0  0  0  0  0  0  0  0
   28.5990   27.6430   13.9970 C   0  0  0  0  0  0  0  0  0  0  0  0
   28.3280   28.9900   14.1770 C   0  0  0  0  0  0  0  0  0  0  0  0
   28.9370   29.6470   15.2480 C   0  0  0  0  0  0  0  0  0  0  0  0
   29.8040   28.9600   16.1130 C   0  0  0  0  0  0  0  0  0  0  0  0
   30.0780   27.6030   15.9230 C   0  0  0  0  0  0  0  0  0  0  0  0
   29.4720   26.9480   14.8630 C   0  0  0  0  0  0  0  0  0  0  0  0
   29.5510   25.5650   14.4420 C   0  0  0  0  0  0  0  0  0  0  0  0
   28.7250   25.3810   13.3110 C   0  0  0  0  0  0  0  0  0  0  0  0
   28.6120   24.1440   12.6960 C   0  0  0  0  0  0  0  0  0  0  0  0
   29.3310   23.0720   13.2320 C   0  0  0  0  0  0  0  0  0  0  0  0
   30.1480   23.2490   14.3610 C   0  0  0  0  0  0  0  0  0  0  0  0
   30.2620   24.5010   14.9730 C   0  0  0  0  0  0  0  0  0  0  0  0
   24.5394   26.3799   13.5232 H   0  0  0  0  0  0  0  0  0  0  0  0
   22.4635   27.0253   11.6072 H   0  0  0  0  0  0  0  0  0  0  0  0
   22.3786   24.0396   15.5474 H   0  0  0  0  0  0  0  0  0  0  0  0
   23.4251   22.9735   14.5499 H   0  0  0  0  0  0  0  0  0  0  0  0
   23.6928   24.7498   14.5499 H   0  0  0  0  0  0  0  0  0  0  0  0
   19.7684   26.3738   10.7652 H   0  0  0  0  0  0  0  0  0  0  0  0
   21.2284   25.8187    9.8781 H   0  0  0  0  0  0  0  0  0  0  0  0
   19.7407   24.8121    9.8781 H   0  0  0  0  0  0  0  0  0  0  0  0
   18.1829   22.8692   13.6339 H   0  0  0  0  0  0  0  0  0  0  0  0
   16.2729   21.4744   12.8317 H   0  0  0  0  0  0  0  0  0  0  0  0
   18.1753   21.0449    8.9825 H   0  0  0  0  0  0  0  0  0  0  0  0
   20.0919   22.4330    9.7733 H   0  0  0  0  0  0  0  0  0  0  0  0
   26.1529   27.5639   12.4072 H   0  0  0  0  0  0  0  0  0  0  0  0
   26.1392   26.4866   13.8681 H   0  0  0  0  0  0  0  0  0  0  0  0
   28.2943   27.0300   11.9087 H   0  0  0  0  0  0  0  0  0  0  0  0
   27.6520   29.5267   13.4952 H   0  0  0  0  0  0  0  0  0  0  0  0
   28.7353   30.7152   15.4161 H   0  0  0  0  0  0  0  0  0  0  0  0
   30.2733   29.4968   16.9506 H   0  0  0  0  0  0  0  0  0  0  0  0
   30.7595   27.0668   16.5998 H   0  0  0  0  0  0  0  0  0  0  0  0
   27.9738   24.0097   11.8102 H   0  0  0  0  0  0  0  0  0  0  0  0
   29.2563   22.0790   12.7648 H   0  0  0  0  0  0  0  0  0  0  0  0
   30.7048   22.3923   14.7685 H   0  0  0  0  0  0  0  0  0  0  0  0
   30.9023   24.6382   15.8569 H   0  0  0  0  0  0  0  0  0  0  0  0
  2  1  2  0
  3  2  1  0
  4  3  1  0
  5  4  1  0
  6  5  1  0
  7  6  1  0
  8  6  2  0
  9  8  1  0
 10  9  1  0
 10  5  2  0
 11 10  1  0
 12  9  1  0
 13 12  2  0
 14 13  1  0
 15 14  2  0
 16 15  1  0
 17 16  2  0
 17 12  1  0
 18 15  1  0
 19  4  1  0
 20 19  2  0
 21 19  1  0
 22  2  1  0
 23 22  1  0
 24 23  1  0
 25 24  1  0
 26 25  2  0
 27 26  1  0
 28 27  2  0
 29 28  1  0
 30 29  2  0
 30 25  1  0
 31 30  1  0
 32 31  2  0
 32 24  1  0
 33 32  1  0
 34 33  2  0
 35 34  1  0
 36 35  2  0
 36 31  1  0
  3 37  1  0
  4 38  1  6
  7 39  1  0
  7 40  1  0
  7 41  1  0
 11 42  1  0
 11 43  1  0
 11 44  1  0
 13 45  1  0
 14 46  1  0
 16 47  1  0
 17 48  1  0
 23 49  1  0
 23 50  1  0
 24 51  1  0
 26 52  1  0
 27 53  1  0
 28 54  1  0
 29 55  1  0
 33 56  1  0
 34 57  1  0
 35 58  1  0
 36 59  1  0
M  CHG  1  21  -1
M  END
$$$$
=
     RDKit          3D

 35 35  0  0  0  0  0  0  0  0999 V2000
   18.3980   16.6270    4.2190 N   0  0  0  0  0  4  0  0  0  0  0  0
   18.5840   17.5690    5.4130 C   0  0  0  0  0  0  0  0  0  0  0  0
   19.7410   18.6000    5.2690 C   0  0  0  0  0  0  0  0  0  0  0  0
   20.8300   18.1140    4.3580 N   0  0  0  0  0  4  0  0  0  0  0  0
   20.3380   17.8490    2.9520 C   0  0  0  0  0  0  0  0  0  0  0  0
   18.9080   17.2370    2.9060 C   0  0  0  0  0  0  0  0  0  0  0  0
   18.9860   15.1670    4.5010 C   0  0  2  0  0  0  0  0  0  0  0  0
   18.1900   14.0440    3.7770 C   0  0  0  0  0  0  0  0  0  0  0  0
   18.9560   13.2880    3.0860 O   0  0  0  0  0  0  0  0  0  0  0  0
   16.9570   14.2200    3.6590 O   0  0  0  0  0  1  0  0  0  0  0  0
   20.7440   14.9630    6.4370 C   0  0  0  0  0  0  0  0  0  0  0  0
   19.2900   14.9810    5.9960 C   0  0  0  0  0  0  0  0  0  0  0  0
   22.1440   18.8800    4.4010 C   0  0  0  0  0  0  0  0  0  0  0  0
   23.2760   18.1330    5.1210 C   0  0  0  0  0  0  0  0  0  0  0  0
   24.3600   18.9440    5.1850 F   0  0  0  0  0  0  0  0  0  0  0  0
   22.9030   17.8900    6.4060 F   0  0  0  0  0  0  0  0  0  0  0  0
   17.3828   16.5045    4.0951 H   0  0  0  0  0  0  0  0  0  0  0  0
   17.6468   18.1269    5.5557 H   0  0  0  0  0  0  0  0  0  0  0  0
   18.8491   16.9298    6.2681 H   0  0  0  0  0  0  0  0  0  0  0  0
   19.3314   19.5362    4.8619 H   0  0  0  0  0  0  0  0  0  0  0  0
   20.1806   18.7524    6.2658 H   0  0  0  0  0  0  0  0  0  0  0  0
   21.0909   17.2056    4.7675 H   0  0  0  0  0  0  0  0  0  0  0  0
   20.3286   18.8005    2.4001 H   0  0  0  0  0  0  0  0  0  0  0  0
   21.0215   17.1149    2.5003 H   0  0  0  0  0  0  0  0  0  0  0  0
   18.2096   18.0339    2.6108 H   0  0  0  0  0  0  0  0  0  0  0  0
   18.9639   16.4024    2.1916 H   0  0  0  0  0  0  0  0  0  0  0  0
   19.9714   15.0658    4.0227 H   0  0  0  0  0  0  0  0  0  0  0  0
   20.7939   14.9624    7.5359 H   0  0  0  0  0  0  0  0  0  0  0  0
   21.2342   14.0587    6.0472 H   0  0  0  0  0  0  0  0  0  0  0  0
   21.2565   15.8549    6.0472 H   0  0  0  0  0  0  0  0  0  0  0  0
   18.7964   15.8038    6.5339 H   0  0  0  0  0  0  0  0  0  0  0  0
   18.9237   13.9692    6.2244 H   0  0  0  0  0  0  0  0  0  0  0  0
   22.4629   19.0790    3.3672 H   0  0  0  0  0  0  0  0  0  0  0  0
   21.9574   19.8026    4.9702 H   0  0  0  0  0  0  0  0  0  0  0  0
   23.4941   17.1993    4.5819 H   0  0  0  0  0  0  0  0  0  0  0  0
  2  1  1  0
  3  2  1  0
  4  3  1  0
  5  4  1  0
  6  5  1  0
  6  1  1  0
  7  1  1  0
  8  7  1  0
  9  8  2  0
 10  8  1  0
 12  7  1  0
 12 11  1  0
 13  4  1  0
 14 13  1  0
 15 14  1  0
 16 14  1  0
  1 17  1  0
  2 18  1  0
  2 19  1  0
  3 20  1  0
  3 21  1  0
  4 22  1  0
  5 23  1  0
  5 24  1  0
  6 25  1  0
  6 26  1  0
  7 27  1  6
 11 28  1  0
 11 29  1  0
 11 30  1  0
 12 31  1  0
 12 32  1  0
 13 33  1  0
 13 34  1  0
 14 35  1  0
M  CHG  3   1   1   4   1  10  -1
M  END
$$$$
=
     RDKit          3D

 27 28  0  0  0  0  0  0  0  0999 V2000
   21.7790   16.1760    7.0320 O   0  0  0  0  0  0  0  0  0  0  0  0
   21.5770   16.1410    5.8260 C   0  0  0  0  0  0  0  0  0  0  0  0
   22.2160   17.0800    4.8810 C   0  0  2  0  0  0  0  0  0  0  0  0
   22.4550   18.5200    5.2600 C   0  0  0  0  0  0  0  0  0  0  0  0
   21.3900   18.1780    4.2430 C   0  0  1  0  0  0  0  0  0  0  0  0
   21.7380   18.4740    2.9200 F   0  0  0  0  0  0  0  0  0  0  0  0
   19.9640   18.3390    4.6140 C   0  0  0  0  0  0  0  0  0  0  0  0
   19.0850   17.9630    3.7720 O   0  0  0  0  0  0  0  0  0  0  0  0
   19.6960   18.8540    5.7480 O   0  0  0  0  0  1  0  0  0  0  0  0
   20.8320   15.2170    5.1680 O   0  0  0  0  0  0  0  0  0  0  0  0
   19.8390   14.6170    5.9960 C   0  0  0  0  0  0  0  0  0  0  0  0
   18.4800   15.0380    5.4950 C   0  0  0  0  0  0  0  0  0  0  0  0
   18.0670   14.6580    4.2090 C   0  0  0  0  0  0  0  0  0  0  0  0
   16.8170   15.0440    3.7230 C   0  0  0  0  0  0  0  0  0  0  0  0
   15.9680   15.8140    4.5160 C   0  0  0  0  0  0  0  0  0  0  0  0
   16.3690   16.1980    5.7950 C   0  0  0  0  0  0  0  0  0  0  0  0
   17.6180   15.8130    6.2840 C   0  0  0  0  0  0  0  0  0  0  0  0
   22.8561   16.2642    4.5140 H   0  0  0  0  0  0  0  0  0  0  0  0
   22.1659   18.8807    6.2582 H   0  0  0  0  0  0  0  0  0  0  0  0
   23.3316   19.1844    5.2729 H   0  0  0  0  0  0  0  0  0  0  0  0
   19.9289   13.5217    5.9489 H   0  0  0  0  0  0  0  0  0  0  0  0
   19.9728   14.9396    7.0391 H   0  0  0  0  0  0  0  0  0  0  0  0
   18.7338   14.0510    3.5789 H   0  0  0  0  0  0  0  0  0  0  0  0
   16.5017   14.7405    2.7138 H   0  0  0  0  0  0  0  0  0  0  0  0
   14.9827   16.1184    4.1333 H   0  0  0  0  0  0  0  0  0  0  0  0
   15.6989   16.8062    6.4204 H   0  0  0  0  0  0  0  0  0  0  0  0
   17.9280   16.1192    7.2940 H   0  0  0  0  0  0  0  0  0  0  0  0
  2  1  2  0
  3  2  1  0
  4  3  1  0
  5  4  1  0
  5  3  1  0
  5  6  1  6
  7  5  1  0
  8  7  2  0
  9  7  1  0
 10  2  1  0
 11 10  1  0
 12 11  1  0
 13 12  2  0
 14 13  1  0
 15 14  2  0
 16 15  1  0
 17 16  2  0
 17 12  1  0
  3 18  1  6
  4 19  1  0
  4 20  1  0
 11 21  1  0
 11 22  1  0
 13 23  1  0
 14 24  1  0
 15 25  1  0
 16 26  1  0
 17 27  1  0
M  CHG  1   9  -1
M  END
$$$$
=
     RDKit          3D

 24 26  0  0  0  0  0  0  0  0999 V2000
   19.0020   14.9370    4.0150 C   0  0  0  0  0  0  0  0  0  0  0  0
   18.8730   13.7860    3.3640 N   0  0  0  0  0  0  0  0  0  0  0  0
   17.5310   13.5640    3.2740 C   0  0  0  0  0  0  0  0  0  0  0  0
   16.7960   14.6000    3.8540 C   0  0  0  0  0  0  0  0  0  0  0  0
   17.7640   15.4920    4.2680 N   0  0  0  0  0  0  0  0  0  0  0  0
   15.3990   14.5340    3.8920 C   0  0  0  0  0  0  0  0  0  0  0  0
   14.6390   15.4720    4.4690 F   0  0  0  0  0  0  0  0  0  0  0  0
   14.7530   13.4300    3.3240 C   0  0  0  0  0  0  0  0  0  0  0  0
   15.4770   12.4050    2.7280 C   0  0  0  0  0  0  0  0  0  0  0  0
   16.8730   12.4610    2.7010 C   0  0  0  0  0  0  0  0  0  0  0  0
   20.9480   15.0880    5.4800 O   0  0  0  0  0  1  0  0  0  0  0  0
   20.3900   15.5840    4.4500 C   0  0  0  0  0  0  0  0  0  0  0  0
   20.8310   16.5440    3.7480 O   0  0  0  0  0  0  0  0  0  0  0  0
   17.5680   16.8750    4.7950 C   0  0  0  0  0  0  0  0  0  0  0  0
   18.4410   17.4960    5.8540 C   0  0  0  0  0  0  0  0  0  0  0  0
   16.9890   17.2270    6.1420 C   0  0  0  0  0  0  0  0  0  0  0  0
   13.6548   13.3730    3.3499 H   0  0  0  0  0  0  0  0  0  0  0  0
   14.9517   11.5499    2.2776 H   0  0  0  0  0  0  0  0  0  0  0  0
   17.4520   11.6497    2.2358 H   0  0  0  0  0  0  0  0  0  0  0  0
   17.2948   17.1096    3.7556 H   0  0  0  0  0  0  0  0  0  0  0  0
   19.2196   16.8950    6.3465 H   0  0  0  0  0  0  0  0  0  0  0  0
   19.0922   18.3811    5.9037 H   0  0  0  0  0  0  0  0  0  0  0  0
   16.2823   18.0649    6.2349 H   0  0  0  0  0  0  0  0  0  0  0  0
   16.4393   16.6770    6.9201 H   0  0  0  0  0  0  0  0  0  0  0  0
  2  1  2  0
  3  2  1  0
  4  3  2  0
  5  4  1  0
  5  1  1  0
  6  4  1  0
  7  6  1  0
  8  6  2  0
  9  8  1  0
 10  9  2  0
 10  3  1  0
 12  1  1  0
 12 11  1  0
 13 12  2  0
 14  5  1  0
 15 14  1  0
 16 14  1  0
 16 15  1  0
  8 17  1  0
  9 18  1  0
 10 19  1  0
 14 20  1  0
 15 21  1  0
 15 22  1  0
 16 23  1  0
 16 24  1  0
M  CHG  1  11  -1
M  END
$$$$
=
     RDKit          3D

 21 21  0  0  0  0  0  0  0  0999 V2000
   16.4970   15.9220    4.5250 C   0  0  0  0  0  0  0  0  0  0  0  0
   15.1280   16.1090    4.7390 C   0  0  0  0  0  0  0  0  0  0  0  0
   14.2140   15.0990    4.4210 C   0  0  0  0  0  0  0  0  0  0  0  0
   14.6390   13.8780    3.8780 C   0  0  0  0  0  0  0  0  0  0  0  0
   16.0120   13.6920    3.6590 C   0  0  0  0  0  0  0  0  0  0  0  0
   16.9280   14.7080    3.9730 C   0  0  0  0  0  0  0  0  0  0  0  0
   18.6450   14.4180    3.6830 S   0  0  0  0  0  6  0  0  0  0  0  0
   18.8480   13.0720    3.1800 O   0  0  0  0  0  0  0  0  0  0  0  0
   19.2450   15.5640    3.0280 O   0  0  0  0  0  0  0  0  0  0  0  0
   19.4530   14.4520    5.5680 Cl  0  0  0  0  0  0  0  0  0  0  0  0
   13.6360   12.7930    3.5370 C   0  0  0  0  0  0  0  0  0  0  0  0
   13.8850   11.6240    3.9660 O   0  0  0  0  0  0  0  0  0  0  0  0
   12.6270   13.1410    2.8500 O   0  0  0  0  0  1  0  0  0  0  0  0
   17.4490   17.4340    6.1030 C   0  0  0  0  0  0  0  0  0  0  0  0
   17.4450   16.8690    4.7980 O   0  0  0  0  0  0  0  0  0  0  0  0
   14.7667   17.0584    5.1610 H   0  0  0  0  0  0  0  0  0  0  0  0
   13.1416   15.2657    4.6003 H   0  0  0  0  0  0  0  0  0  0  0  0
   16.3736   12.7423    3.2378 H   0  0  0  0  0  0  0  0  0  0  0  0
   17.4433   16.6280    6.8515 H   0  0  0  0  0  0  0  0  0  0  0  0
   18.3515   18.0492    6.2335 H   0  0  0  0  0  0  0  0  0  0  0  0
   16.5553   18.0619    6.2335 H   0  0  0  0  0  0  0  0  0  0  0  0
  2  1  2  0
  3  2  1  0
  4  3  2  0
  5  4  1  0
  6  5  2  0
  6  1  1  0
  7  6  1  0
  8  7  2  0
  9  7  2  0
 10  7  1  0
 11  4  1  0
 12 11  2  0
 13 11  1  0
 15  1  1  0
 15 14  1  0
  2 16  1  0
  3 17  1  0
  5 18  1  0
 14 19  1  0
 14 20  1  0
 14 21  1  0
M  CHG  1  13  -1
M  END
$$$$
=
     RDKit          3D

 24 25  0  0  0  0  0  0  0  0999 V2000
   18.2270   14.1610    3.8700 C   0  0  0  0  0  0  0  0  0  0  0  0
   18.1990   12.9550    3.1420 C   0  0  0  0  0  0  0  0  0  0  0  0
   16.9410   12.5640    2.9200 N   0  0  0  0  0  0  0  0  0  0  0  0
   16.2360   13.5550    3.5280 N   0  0  0  0  0  0  0  0  0  0  0  0
   16.9650   14.5390    4.1140 N   0  0  0  0  0  0  0  0  0  0  0  0
   14.8140   13.5620    3.5480 C   0  0  0  0  0  0  0  0  0  0  0  0
   14.1270   14.5150    4.3130 C   0  0  0  0  0  0  0  0  0  0  0  0
   12.7310   14.5190    4.3320 C   0  0  0  0  0  0  0  0  0  0  0  0
   12.0190   13.5760    3.5920 C   0  0  0  0  0  0  0  0  0  0  0  0
   12.6990   12.6250    2.8300 C   0  0  0  0  0  0  0  0  0  0  0  0
   14.0950   12.6150    2.8060 C   0  0  0  0  0  0  0  0  0  0  0  0
   19.8640   14.9400    5.5490 C   0  0  0  0  0  0  0  0  0  0  0  0
   19.3760   14.8930    4.2990 C   0  0  0  0  0  0  0  0  0  0  0  0
   21.3580   15.7560    7.1460 O   0  0  0  0  0  1  0  0  0  0  0  0
   21.1020   15.7540    5.9090 C   0  0  0  0  0  0  0  0  0  0  0  0
   21.7070   16.3120    4.9540 O   0  0  0  0  0  0  0  0  0  0  0  0
   19.0918   12.4094    2.8025 H   0  0  0  0  0  0  0  0  0  0  0  0
   14.6875   15.2591    4.8979 H   0  0  0  0  0  0  0  0  0  0  0  0
   12.1921   15.2673    4.9317 H   0  0  0  0  0  0  0  0  0  0  0  0
   10.9191   13.5816    3.6088 H   0  0  0  0  0  0  0  0  0  0  0  0
   12.1344   11.8822    2.2474 H   0  0  0  0  0  0  0  0  0  0  0  0
   14.6300   11.8646    2.2054 H   0  0  0  0  0  0  0  0  0  0  0  0
   19.3532   14.3718    6.3404 H   0  0  0  0  0  0  0  0  0  0  0  0
   19.9117   15.4730    3.5330 H   0  0  0  0  0  0  0  0  0  0  0  0
  2  1  1  0
  3  2  2  0
  4  3  1  0
  5  4  1  0
  5  1  2  0
  6  4  1  0
  7  6  2  0
  8  7  1  0
  9  8  2  0
 10  9  1  0
 11 10  2  0
 11  6  1  0
 13  1  1  0
 13 12  2  0
 15 14  1  0
 15 12  1  0
 16 15  2  0
  2 17  1  0
  7 18  1  0
  8 19  1  0
  9 20  1  0
 10 21  1  0
 11 22  1  0
 12 23  1  0
 13 24  1  0
M  CHG  1  14  -1
M  END
$$$$
=
     RDKit          3D

 25 25  0  0  0  0  0  0  0  0999 V2000
   16.6140   15.4590    4.7380 C   0  0  0  0  0  0  0  0  0  0  0  0
   17.4560   14.7510    3.8800 C   0  0  0  0  0  0  0  0  0  0  0  0
   18.8270   14.6540    4.1420 C   0  0  0  0  0  0  0  0  0  0  0  0
   19.3870   15.2730    5.2680 C   0  0  0  0  0  0  0  0  0  0  0  0
   18.5320   15.9860    6.1200 C   0  0  0  0  0  0  0  0  0  0  0  0
   17.1580   16.0780    5.8620 C   0  0  0  0  0  0  0  0  0  0  0  0
   15.2940   15.4730    4.3710 O   0  0  0  0  0  0  0  0  0  0  0  0
   13.2200   14.3110    4.2430 C   0  0  0  0  0  0  0  0  0  0  0  0
   14.7180   14.2190    4.0130 C   0  0  0  0  0  0  0  0  0  0  0  0
   20.8700   15.2020    5.5760 C   0  0  1  0  0  0  0  0  0  0  0  0
   21.5860   16.5930    5.4820 C   0  0  0  0  0  0  0  0  0  0  0  0
   22.3210   16.8470    6.4930 O   0  0  0  0  0  0  0  0  0  0  0  0
   21.4210   17.2580    4.4200 O   0  0  0  0  0  1  0  0  0  0  0  0
   21.0950   14.6540    6.9040 O   0  0  0  0  0  0  0  0  0  0  0  0
   17.0372   14.2634    2.9873 H   0  0  0  0  0  0  0  0  0  0  0  0
   19.4727   14.0855    3.4565 H   0  0  0  0  0  0  0  0  0  0  0  0
   18.9481   16.4831    7.0087 H   0  0  0  0  0  0  0  0  0  0  0  0
   16.5072   16.6400    6.5480 H   0  0  0  0  0  0  0  0  0  0  0  0
   13.0151   14.3236    5.3237 H   0  0  0  0  0  0  0  0  0  0  0  0
   12.8349   15.2345    3.7860 H   0  0  0  0  0  0  0  0  0  0  0  0
   12.7248   13.4416    3.7860 H   0  0  0  0  0  0  0  0  0  0  0  0
   15.1437   13.4201    4.6379 H   0  0  0  0  0  0  0  0  0  0  0  0
   14.9303   13.9867    2.9590 H   0  0  0  0  0  0  0  0  0  0  0  0
   21.3027   14.5437    4.8083 H   0  0  0  0  0  0  0  0  0  0  0  0
   20.8223   15.3182    7.5856 H   0  0  0  0  0  0  0  0  0  0  0  0
  2  1  2  0
  3  2  1  0
  4  3  2  0
  5  4  1  0
  6  1  1  0
  6  5  2  0
  7  1  1  0
  9  8  1  0
  9  7  1  0
 10  4  1  0
 11 10  1  0
 12 11  2  0
 13 11  1  0
 14 10  1  0
  2 15  1  0
  3 16  1  0
  5 17  1  0
  6 18  1  0
  8 19  1  0
  8 20  1  0
  8 21  1  0
  9 22  1  0
  9 23  1  0
 10 24  1  6
 14 25  1  0
M  CHG  1  13  -1
M  END
$$$$
=
     RDKit          3D

 30 31  0  0  0  0  0  0  0  0999 V2000
   18.8000   13.5220    3.1540 O   0  0  0  0  0  0  0  0  0  0  0  0
   18.5480   14.5950    3.6870 C   0  0  0  0  0  0  0  0  0  0  0  0
   17.2950   15.0730    4.0250 N   0  0  0  0  0  0  0  0  0  0  0  0
   16.1440   14.3720    3.8140 C   0  0  0  0  0  0  0  0  0  0  0  0
   15.9630   13.1750    3.3210 N   0  0  0  0  0  0  0  0  0  0  0  0
   14.6140   12.8870    3.3010 C   0  0  0  0  0  0  0  0  0  0  0  0
   13.7840   13.8760    3.7880 C   0  0  0  0  0  0  0  0  0  0  0  0
   14.7330   15.2150    4.2890 S   0  0  0  0  0  0  0  0  0  0  0  0
   12.3050   13.8970    3.9090 C   0  0  0  0  0  0  0  0  0  0  0  0
   19.6230   15.6050    4.0730 C   0  0  1  0  0  0  0  0  0  0  0  0
   19.6010   16.8360    3.1540 C   0  0  0  0  0  0  0  0  0  0  0  0
   19.7940   18.0550    4.0570 C   0  0  0  0  0  0  0  0  0  0  0  0
   20.2380   17.5060    5.4070 C   0  0  1  0  0  0  0  0  0  0  0  0
   19.5020   16.1710    5.4890 C   0  0  0  0  0  0  0  0  0  0  0  0
   21.7530   17.2570    5.5450 C   0  0  0  0  0  0  0  0  0  0  0  0
   22.4860   17.7840    4.6610 O   0  0  0  0  0  0  0  0  0  0  0  0
   22.0800   16.5350    6.5290 O   0  0  0  0  0  1  0  0  0  0  0  0
   17.2275   16.0052    4.4578 H   0  0  0  0  0  0  0  0  0  0  0  0
   14.2251   11.9307    2.9213 H   0  0  0  0  0  0  0  0  0  0  0  0
   12.0241   13.9010    4.9725 H   0  0  0  0  0  0  0  0  0  0  0  0
   11.9101   14.8008    3.4221 H   0  0  0  0  0  0  0  0  0  0  0  0
   11.8846   13.0047    3.4221 H   0  0  0  0  0  0  0  0  0  0  0  0
   20.5478   15.0157    3.9869 H   0  0  0  0  0  0  0  0  0  0  0  0
   20.4162   16.7754    2.4179 H   0  0  0  0  0  0  0  0  0  0  0  0
   18.6549   16.8995    2.5965 H   0  0  0  0  0  0  0  0  0  0  0  0
   20.5650   18.7208    3.6420 H   0  0  0  0  0  0  0  0  0  0  0  0
   18.8694   18.6445    4.1442 H   0  0  0  0  0  0  0  0  0  0  0  0
   20.0136   18.2305    6.2037 H   0  0  0  0  0  0  0  0  0  0  0  0
   18.4473   16.3204    5.7633 H   0  0  0  0  0  0  0  0  0  0  0  0
   19.9189   15.4998    6.2543 H   0  0  0  0  0  0  0  0  0  0  0  0
  2  1  2  0
  3  2  1  0
  4  3  1  0
  5  4  2  0
  6  5  1  0
  7  6  2  0
  8  7  1  0
  8  4  1  0
  9  7  1  0
 10  2  1  0
 11 10  1  0
 12 11  1  0
 13 12  1  0
 14 10  1  0
 14 13  1  0
 15 13  1  0
 16 15  2  0
 17 15  1  0
  3 18  1  0
  6 19  1  0
  9 20  1  0
  9 21  1  0
  9 22  1  0
 10 23  1  1
 11 24  1  0
 11 25  1  0
 12 26  1  0
 12 27  1  0
 13 28  1  1
 14 29  1  0
 14 30  1  0
M  CHG  1  17  -1
M  END
$$$$
=
     RDKit          3D

 70 72  0  0  0  0  0  0  0  0999 V2000
   21.9610   24.7470   12.0500 C   0  0  1  0  0  0  0  0  0  0  0  0
   21.2460   25.3910   13.2530 C   0  0  0  0  0  0  0  0  0  0  0  0
   20.6810   26.4830   13.1310 O   0  0  0  0  0  0  0  0  0  0  0  0
   21.2550   24.6840   14.4360 N   0  0  0  0  0  0  0  0  0  0  0  0
   21.7320   23.3300   14.6590 C   0  0  0  0  0  0  0  0  0  0  0  0
   21.6390   23.1010   16.1620 C   0  0  0  0  0  0  0  0  0  0  0  0
   20.6190   24.1390   16.6270 C   0  0  0  0  0  0  0  0  0  0  0  0
   20.9010   25.3300   15.7140 C   0  0  1  0  0  0  0  0  0  0  0  0
   22.0390   26.1750   16.3790 C   0  0  0  0  0  0  0  0  0  0  0  0
   22.1230   27.3700   15.9680 O   0  0  0  0  0  0  0  0  0  0  0  0
   22.7060   25.5890   17.2850 O   0  0  0  0  0  1  0  0  0  0  0  0
   21.2130   22.0440   11.3950 O   0  0  0  0  0  0  0  0  0  0  0  0
   20.6800   22.9930   10.8420 C   0  0  0  0  0  0  0  0  0  0  0  0
   20.9450   24.2930   11.1060 N   0  0  0  0  0  0  0  0  0  0  0  0
   19.7310   22.9260    9.8810 O   0  0  0  0  0  0  0  0  0  0  0  0
   18.3280   22.8120   10.2260 C   0  0  0  0  0  0  0  0  0  0  0  0
   18.1100   22.9630   11.7340 C   0  0  0  0  0  0  0  0  0  0  0  0
   17.4720   23.7970    9.4230 C   0  0  0  0  0  0  0  0  0  0  0  0
   17.9410   21.3820    9.8160 C   0  0  0  0  0  0  0  0  0  0  0  0
   22.9930   25.7100   11.4360 C   0  0  0  0  0  0  0  0  0  0  0  0
   24.2500   25.9010   12.2400 C   0  0  0  0  0  0  0  0  0  0  0  0
   24.3810   26.6630   13.3780 C   0  0  0  0  0  0  0  0  0  0  0  0
   25.6850   26.6130   13.8480 N   0  0  0  0  0  0  0  0  0  0  0  0
   26.4080   25.7650   12.9930 C   0  0  0  0  0  0  0  0  0  0  0  0
   25.5280   25.3190   11.9960 C   0  0  0  0  0  0  0  0  0  0  0  0
   26.0060   24.4400   10.9980 C   0  0  0  0  0  0  0  0  0  0  0  0
   27.3370   24.0210   11.0080 C   0  0  0  0  0  0  0  0  0  0  0  0
   28.2010   24.4690   11.9970 C   0  0  0  0  0  0  0  0  0  0  0  0
   27.7550   25.3400   12.9960 C   0  0  0  0  0  0  0  0  0  0  0  0
   26.1200   27.3200   14.9930 C   0  0  0  0  0  0  0  0  0  0  0  0
   25.3580   28.0210   15.6380 O   0  0  0  0  0  0  0  0  0  0  0  0
   27.4370   27.1060   15.2360 O   0  0  0  0  0  0  0  0  0  0  0  0
   28.3680   28.2170   15.2270 C   0  0  0  0  0  0  0  0  0  0  0  0
   28.2730   29.0350   16.5200 C   0  0  0  0  0  0  0  0  0  0  0  0
   29.7560   27.5610   15.1630 C   0  0  0  0  0  0  0  0  0  0  0  0
   28.1830   29.0900   13.9820 C   0  0  0  0  0  0  0  0  0  0  0  0
   22.5466   23.8713   12.3666 H   0  0  0  0  0  0  0  0  0  0  0  0
   21.1002   22.6076   14.1214 H   0  0  0  0  0  0  0  0  0  0  0  0
   22.7602   23.1967   14.2914 H   0  0  0  0  0  0  0  0  0  0  0  0
   21.2888   22.0817   16.3821 H   0  0  0  0  0  0  0  0  0  0  0  0
   22.6102   23.2027   16.6684 H   0  0  0  0  0  0  0  0  0  0  0  0
   19.5911   23.7716   16.4915 H   0  0  0  0  0  0  0  0  0  0  0  0
   20.7047   24.3824   17.6963 H   0  0  0  0  0  0  0  0  0  0  0  0
   20.0792   26.0426   15.5498 H   0  0  0  0  0  0  0  0  0  0  0  0
   20.3946   25.0079   10.6091 H   0  0  0  0  0  0  0  0  0  0  0  0
   18.8975   22.4176   12.2747 H   0  0  0  0  0  0  0  0  0  0  0  0
   18.1494   24.0283   12.0053 H   0  0  0  0  0  0  0  0  0  0  0  0
   17.1266   22.5516   12.0053 H   0  0  0  0  0  0  0  0  0  0  0  0
   16.9106   24.4429   10.1141 H   0  0  0  0  0  0  0  0  0  0  0  0
   18.1233   24.4167    8.7892 H   0  0  0  0  0  0  0  0  0  0  0  0
   16.7675   23.2385    8.7892 H   0  0  0  0  0  0  0  0  0  0  0  0
   17.7764   20.7739   10.7177 H   0  0  0  0  0  0  0  0  0  0  0  0
   17.0179   21.4090    9.2184 H   0  0  0  0  0  0  0  0  0  0  0  0
   18.7518   20.9398    9.2184 H   0  0  0  0  0  0  0  0  0  0  0  0
   23.2774   25.3189   10.4480 H   0  0  0  0  0  0  0  0  0  0  0  0
   22.5045   26.6948   11.3955 H   0  0  0  0  0  0  0  0  0  0  0  0
   23.5659   27.2320   13.8490 H   0  0  0  0  0  0  0  0  0  0  0  0
   25.3259   24.0846   10.2099 H   0  0  0  0  0  0  0  0  0  0  0  0
   27.7020   23.3341   10.2302 H   0  0  0  0  0  0  0  0  0  0  0  0
   29.2491   24.1351   11.9952 H   0  0  0  0  0  0  0  0  0  0  0  0
   28.4463   25.6907   13.7764 H   0  0  0  0  0  0  0  0  0  0  0  0
   28.3512   28.3617   17.3864 H   0  0  0  0  0  0  0  0  0  0  0  0
   29.0920   29.7687   16.5507 H   0  0  0  0  0  0  0  0  0  0  0  0
   27.3077   29.5615   16.5507 H   0  0  0  0  0  0  0  0  0  0  0  0
   30.1263   27.3860   16.1839 H   0  0  0  0  0  0  0  0  0  0  0  0
   29.6839   26.6017   14.6296 H   0  0  0  0  0  0  0  0  0  0  0  0
   30.4515   28.2257   14.6296 H   0  0  0  0  0  0  0  0  0  0  0  0
   27.9640   30.1236   14.2882 H   0  0  0  0  0  0  0  0  0  0  0  0
   29.1047   29.0729   13.3819 H   0  0  0  0  0  0  0  0  0  0  0  0
   27.3475   28.7005   13.3819 H   0  0  0  0  0  0  0  0  0  0  0  0
  2  1  1  0
  3  2  2  0
  4  2  1  0
  5  4  1  0
  6  5  1  0
  7  6  1  0
  8  4  1  0
  8  7  1  0
  9  8  1  0
 10  9  2  0
 11  9  1  0
 13 12  2  0
 14 13  1  0
 14  1  1  0
 15 13  1  0
 16 15  1  0
 17 16  1  0
 18 16  1  0
 19 16  1  0
 20  1  1  0
 21 20  1  0
 22 21  2  0
 23 22  1  0
 24 23  1  0
 25 24  2  0
 25 21  1  0
 26 25  1  0
 27 26  2  0
 28 27  1  0
 29 24  1  0
 29 28  2  0
 30 23  1  0
 31 30  2  0
 32 30  1  0
 33 32  1  0
 34 33  1  0
 35 33  1  0
 36 33  1  0
  1 37  1  1
  5 38  1  0
  5 39  1  0
  6 40  1  0
  6 41  1  0
  7 42  1  0
  7 43  1  0
  8 44  1  6
 14 45  1  0
 17 46  1  0
 17 47  1  0
 17 48  1  0
 18 49  1  0
 18 50  1  0
 18 51  1  0
 19 52  1  0
 19 53  1  0
 19 54  1  0
 20 55  1  0
 20 56  1  0
 22 57  1  0
 26 58  1  0
 27 59  1  0
 28 60  1  0
 29 61  1  0
 34 62  1  0
 34 63  1  0
 34 64  1  0
 35 65  1  0
 35 66  1  0
 35 67  1  0
 36 68  1  0
 36 69  1  0
 36 70  1  0
M  CHG  1  11  -1
M  END
$$$$
=
     RDKit          3D

 21 21  0  0  0  0  0  0  0  0999 V2000
   14.5580   14.4840    4.5900 C   0  0  0  0  0  0  0  0  0  0  0  0
   15.0720   15.6270    5.2070 C   0  0  0  0  0  0  0  0  0  0  0  0
   16.3690   16.0660    4.9200 C   0  0  0  0  0  0  0  0  0  0  0  0
   17.1820   15.3760    4.0130 C   0  0  0  0  0  0  0  0  0  0  0  0
   16.6570   14.2290    3.3970 C   0  0  0  0  0  0  0  0  0  0  0  0
   15.3530   13.7730    3.6750 C   0  0  0  0  0  0  0  0  0  0  0  0
   14.8250   12.5390    2.9970 C   0  0  0  0  0  0  0  0  0  0  0  0
   14.5850   11.5070    3.8620 F   0  0  0  0  0  0  0  0  0  0  0  0
   13.6420   12.7270    2.3400 F   0  0  0  0  0  0  0  0  0  0  0  0
   15.6740   12.0360    2.0520 F   0  0  0  0  0  0  0  0  0  0  0  0
   18.5880   15.8570    3.7050 C   0  0  0  0  0  0  0  0  0  0  0  0
   19.4290   14.9780    3.3360 O   0  0  0  0  0  0  0  0  0  0  0  0
   18.8150   17.0980    3.8410 O   0  0  0  0  0  1  0  0  0  0  0  0
   12.2000   14.7920    4.4230 C   0  0  0  0  0  0  0  0  0  0  0  0
   13.3020   13.9810    4.8090 O   0  0  0  0  0  0  0  0  0  0  0  0
   14.4525   16.1860    5.9237 H   0  0  0  0  0  0  0  0  0  0  0  0
   16.7564   16.9685    5.4154 H   0  0  0  0  0  0  0  0  0  0  0  0
   17.2786   13.6727    2.6799 H   0  0  0  0  0  0  0  0  0  0  0  0
   11.6890   15.1681    5.3216 H   0  0  0  0  0  0  0  0  0  0  0  0
   12.5615   15.6411    3.8244 H   0  0  0  0  0  0  0  0  0  0  0  0
   11.4968   14.1943    3.8244 H   0  0  0  0  0  0  0  0  0  0  0  0
  2  1  2  0
  3  2  1  0
  4  3  2  0
  5  4  1  0
  6  1  1  0
  6  5  2  0
  7  6  1  0
  8  7  1  0
  9  7  1  0
 10  7  1  0
 11  4  1  0
 12 11  2  0
 13 11  1  0
 15 14  1  0
 15  1  1  0
  2 16  1  0
  3 17  1  0
  5 18  1  0
 14 19  1  0
 14 20  1  0
 14 21  1  0
M  CHG  1  13  -1
M  END
$$$$
=
     RDKit          3D

 24 24  0  0  0  0  0  0  0  0999 V2000
   17.3250   15.2880    4.9750 C   0  0  1  0  0  0  0  0  0  0  0  0
   18.6570   16.0340    5.0150 C   0  0  0  0  0  0  0  0  0  0  0  0
   18.8990   17.1810    4.2380 C   0  0  0  0  0  0  0  0  0  0  0  0
   20.1210   17.8520    4.3160 C   0  0  0  0  0  0  0  0  0  0  0  0
   21.1190   17.3950    5.1740 C   0  0  0  0  0  0  0  0  0  0  0  0
   20.8920   16.2650    5.9570 C   0  0  0  0  0  0  0  0  0  0  0  0
   19.6720   15.6000    5.8740 C   0  0  0  0  0  0  0  0  0  0  0  0
   19.4760   14.5260    6.6520 F   0  0  0  0  0  0  0  0  0  0  0  0
   16.2610   16.0780    5.7720 C   0  0  0  0  0  0  0  0  0  0  0  0
   15.3920   15.2580    6.4190 F   0  0  0  0  0  0  0  0  0  0  0  0
   15.5090   16.9050    5.0120 F   0  0  0  0  0  0  0  0  0  0  0  0
   16.8350   16.8540    6.7330 F   0  0  0  0  0  0  0  0  0  0  0  0
   17.0020   15.0900    3.5780 O   0  0  0  0  0  0  0  0  0  0  0  0
   15.9500   14.1320    3.3240 C   0  0  0  0  0  0  0  0  0  0  0  0
   15.5950   12.0180    2.3100 O   0  0  0  0  0  1  0  0  0  0  0  0
   16.4730   12.7590    2.8420 C   0  0  0  0  0  0  0  0  0  0  0  0
   17.7050   12.5470    3.0180 O   0  0  0  0  0  0  0  0  0  0  0  0
   17.3696   14.3014    5.4595 H   0  0  0  0  0  0  0  0  0  0  0  0
   18.1164   17.5539    3.5609 H   0  0  0  0  0  0  0  0  0  0  0  0
   20.2964   18.7447    3.6977 H   0  0  0  0  0  0  0  0  0  0  0  0
   22.0817   17.9238    5.2330 H   0  0  0  0  0  0  0  0  0  0  0  0
   21.6744   15.8996    6.6385 H   0  0  0  0  0  0  0  0  0  0  0  0
   15.3829   13.9820    4.2545 H   0  0  0  0  0  0  0  0  0  0  0  0
   15.3247   14.5426    2.5176 H   0  0  0  0  0  0  0  0  0  0  0  0
  2  1  1  0
  3  2  2  0
  4  3  1  0
  5  4  2  0
  6  5  1  0
  7  2  1  0
  7  6  2  0
  8  7  1  0
  9  1  1  0
 10  9  1  0
 11  9  1  0
 12  9  1  0
 13  1  1  0
 14 13  1  0
 16 15  1  0
 16 14  1  0
 17 16  2  0
  1 18  1  1
  3 19  1  0
  4 20  1  0
  5 21  1  0
  6 22  1  0
 14 23  1  0
 14 24  1  0
M  CHG  1  15  -1
M  END
$$$$
=
     RDKit          3D

 38 39  0  0  0  0  0  0  0  0999 V2000
   15.7760   14.4490    4.2020 N   0  0  1  0  0  4  0  0  0  0  0  0
   14.3440   14.1230    3.9620 C   0  0  1  0  0  0  0  0  0  0  0  0
   14.0760   12.6200    3.8340 C   0  0  0  0  0  0  0  0  0  0  0  0
   12.5600   12.4900    3.7290 C   0  0  0  0  0  0  0  0  0  0  0  0
   11.8970   13.8050    4.7430 S   0  0  0  0  0  6  0  0  0  0  0  0
   11.3860   13.2410    5.9720 O   0  0  0  0  0  0  0  0  0  0  0  0
   11.1170   14.6760    3.8900 O   0  0  0  0  0  0  0  0  0  0  0  0
   13.4440   14.6220    5.0860 C   0  0  0  0  0  0  0  0  0  0  0  0
   16.7590   14.4730    2.9970 C   0  0  0  0  0  0  0  0  0  0  0  0
   18.8560   13.5280    3.1890 O   0  0  0  0  0  1  0  0  0  0  0  0
   17.6350   13.1920    3.0310 C   0  0  0  0  0  0  0  0  0  0  0  0
   17.0610   12.1000    2.8540 O   0  0  0  0  0  0  0  0  0  0  0  0
   16.1140   15.4720    5.2610 C   0  0  0  0  0  0  0  0  0  0  0  0
   17.5700   15.8590    5.3550 C   0  0  0  0  0  0  0  0  0  0  0  0
   18.4580   15.1250    6.1590 C   0  0  0  0  0  0  0  0  0  0  0  0
   19.8080   15.4780    6.2420 C   0  0  0  0  0  0  0  0  0  0  0  0
   20.2800   16.5790    5.5190 C   0  0  0  0  0  0  0  0  0  0  0  0
   19.4080   17.3300    4.7210 C   0  0  0  0  0  0  0  0  0  0  0  0
   18.0590   16.9700    4.6440 C   0  0  0  0  0  0  0  0  0  0  0  0
   21.6990   16.9520    5.5980 N   0  0  0  0  0  4  0  0  0  0  0  0
   22.3290   16.6060    6.6050 O   0  0  0  0  0  0  0  0  0  0  0  0
   22.1790   17.5830    4.6450 O   0  0  0  0  0  1  0  0  0  0  0  0
   15.9794   13.5446    4.6510 H   0  0  0  0  0  0  0  0  0  0  0  0
   14.1148   14.6290    3.0126 H   0  0  0  0  0  0  0  0  0  0  0  0
   14.5608   12.2174    2.9324 H   0  0  0  0  0  0  0  0  0  0  0  0
   14.4780   12.0571    4.6893 H   0  0  0  0  0  0  0  0  0  0  0  0
   12.2353   12.6087    2.6847 H   0  0  0  0  0  0  0  0  0  0  0  0
   12.2109   11.5016    4.0625 H   0  0  0  0  0  0  0  0  0  0  0  0
   13.3317   15.7156    5.0482 H   0  0  0  0  0  0  0  0  0  0  0  0
   13.8386   14.4050    6.0896 H   0  0  0  0  0  0  0  0  0  0  0  0
   16.1887   14.5045    2.0569 H   0  0  0  0  0  0  0  0  0  0  0  0
   17.4017   15.3634    3.0605 H   0  0  0  0  0  0  0  0  0  0  0  0
   15.5351   16.3828    5.0483 H   0  0  0  0  0  0  0  0  0  0  0  0
   15.8658   15.0009    6.2235 H   0  0  0  0  0  0  0  0  0  0  0  0
   18.0863   14.2617    6.7304 H   0  0  0  0  0  0  0  0  0  0  0  0
   20.4950   14.8938    6.8718 H   0  0  0  0  0  0  0  0  0  0  0  0
   19.7820   18.1979    4.1581 H   0  0  0  0  0  0  0  0  0  0  0  0
   17.3727   17.5620    4.0207 H   0  0  0  0  0  0  0  0  0  0  0  0
  2  1  1  0
  3  2  1  0
  4  3  1  0
  5  4  1  0
  6  5  2  0
  7  5  2  0
  8  5  1  0
  8  2  1  0
  9  1  1  0
 11 10  1  0
 11  9  1  0
 12 11  2  0
 13  1  1  0
 14 13  1  0
 15 14  2  0
 16 15  1  0
 17 16  2  0
 18 17  1  0
 19 14  1  0
 19 18  2  0
 20 17  1  0
 21 20  2  0
 22 20  1  0
  1 23  1  1
  2 24  1  6
  3 25  1  0
  3 26  1  0
  4 27  1  0
  4 28  1  0
  8 29  1  0
  8 30  1  0
  9 31  1  0
  9 32  1  0
 13 33  1  0
 13 34  1  0
 15 35  1  0
 16 36  1  0
 18 37  1  0
 19 38  1  0
M  CHG  4   1   1  10  -1  20   1  22  -1
M  END
$$$$
=
     RDKit          3D

 32 31  0  0  0  0  0  0  0  0999 V2000
   17.6340   15.6110    4.0050 N   0  0  0  0  0  0  0  0  0  0  0  0
   17.9550   16.1840    5.2120 C   0  0  0  0  0  0  0  0  0  0  0  0
   17.4800   15.8120    6.2840 O   0  0  0  0  0  0  0  0  0  0  0  0
   18.9780   17.3140    5.1170 C   0  0  0  0  0  0  0  0  0  0  0  0
   18.6570   18.3730    5.9250 F   0  0  0  0  0  0  0  0  0  0  0  0
   18.9750   17.8350    3.8460 F   0  0  0  0  0  0  0  0  0  0  0  0
   20.3850   16.8450    5.4370 C   0  0  0  0  0  0  0  0  0  0  0  0
   20.7450   15.9240    4.4710 F   0  0  0  0  0  0  0  0  0  0  0  0
   20.4440   16.1430    6.6050 F   0  0  0  0  0  0  0  0  0  0  0  0
   21.4230   17.9630    5.4160 C   0  0  0  0  0  0  0  0  0  0  0  0
   21.9870   18.4990    3.8180 Cl  0  0  0  0  0  0  0  0  0  0  0  0
   22.5060   17.6430    6.1750 F   0  0  0  0  0  0  0  0  0  0  0  0
   20.8840   19.0700    6.0160 F   0  0  0  0  0  0  0  0  0  0  0  0
   16.8360   14.3750    3.8540 C   0  0  2  0  0  0  0  0  0  0  0  0
   17.6560   13.2570    3.1280 C   0  0  0  0  0  0  0  0  0  0  0  0
   18.9070   13.4910    3.0980 O   0  0  0  0  0  0  0  0  0  0  0  0
   17.0030   12.2740    2.6860 O   0  0  0  0  0  1  0  0  0  0  0  0
   15.4590   14.6500    3.2360 C   0  0  0  0  0  0  0  0  0  0  0  0
   14.3250   14.9790    4.2200 C   0  0  0  0  0  0  0  0  0  0  0  0
   13.3050   12.8200    3.3220 C   0  0  0  0  0  0  0  0  0  0  0  0
   13.1310   14.0230    4.2370 C   0  0  0  0  0  0  0  0  0  0  0  0
   17.9716   16.0730    3.1485 H   0  0  0  0  0  0  0  0  0  0  0  0
   16.6182   13.9805    4.8574 H   0  0  0  0  0  0  0  0  0  0  0  0
   15.5642   15.5023    2.5486 H   0  0  0  0  0  0  0  0  0  0  0  0
   15.1621   13.7089    2.7500 H   0  0  0  0  0  0  0  0  0  0  0  0
   14.7555   14.9926    5.2322 H   0  0  0  0  0  0  0  0  0  0  0  0
   13.9185   15.9431    3.8805 H   0  0  0  0  0  0  0  0  0  0  0  0
   13.4362   11.9128    3.9301 H   0  0  0  0  0  0  0  0  0  0  0  0
   12.4134   12.7102    2.6872 H   0  0  0  0  0  0  0  0  0  0  0  0
   14.1912   12.9673    2.6872 H   0  0  0  0  0  0  0  0  0  0  0  0
   12.2363   14.5773    3.9173 H   0  0  0  0  0  0  0  0  0  0  0  0
   13.0383   13.6386    5.2635 H   0  0  0  0  0  0  0  0  0  0  0  0
  2  1  1  0
  3  2  2  0
  4  2  1  0
  5  4  1  0
  6  4  1  0
  7  4  1  0
  8  7  1  0
  9  7  1  0
 10  7  1  0
 11 10  1  0
 12 10  1  0
 13 10  1  0
 14  1  1  0
 15 14  1  0
 16 15  2  0
 17 15  1  0
 18 14  1  0
 19 18  1  0
 21 20  1  0
 21 19  1  0
  1 22  1  0
 14 23  1  1
 18 24  1  0
 18 25  1  0
 19 26  1  0
 19 27  1  0
 20 28  1  0
 20 29  1  0
 20 30  1  0
 21 31  1  0
 21 32  1  0
M  CHG  1  17  -1
M  END
$$$$
=
     RDKit          3D

 36 38  0  0  0  0  0  0  0  0999 V2000
    8.6330   12.8960    3.1070 C   0  0  0  0  0  0  0  0  0  0  0  0
    9.9600   12.8730    3.3490 N   0  0  0  0  0  0  0  0  0  0  0  0
   10.7090   12.2440    2.4400 C   0  0  0  0  0  0  0  0  0  0  0  0
   10.2510   11.5800    1.3720 N   0  0  0  0  0  0  0  0  0  0  0  0
    8.9330   11.6190    1.1520 C   0  0  0  0  0  0  0  0  0  0  0  0
    8.0350   12.2780    1.9980 C   0  0  0  0  0  0  0  0  0  0  0  0
    6.6500   12.2730    1.6800 C   0  0  0  0  0  0  0  0  0  0  0  0
    6.1760   11.6150    0.5470 C   0  0  0  0  0  0  0  0  0  0  0  0
    7.0730   10.9530   -0.2790 C   0  0  0  0  0  0  0  0  0  0  0  0
    8.4350   10.9630    0.0310 C   0  0  0  0  0  0  0  0  0  0  0  0
    7.6810   13.6840    4.4020 S   0  0  0  0  0  0  0  0  0  0  0  0
    9.0510   14.3170    5.4290 C   0  0  0  0  0  0  0  0  0  0  0  0
    8.3790   12.4150    6.6610 O   0  0  0  0  0  1  0  0  0  0  0  0
    9.2720   13.3050    6.5580 C   0  0  0  0  0  0  0  0  0  0  0  0
   10.3000   13.4840    7.2730 O   0  0  0  0  0  0  0  0  0  0  0  0
   12.4660   12.2460    2.6930 S   0  0  0  0  0  0  0  0  0  0  0  0
   12.5690   13.7100    3.7630 C   0  0  0  0  0  0  0  0  0  0  0  0
   13.9770   14.2270    3.9210 C   0  0  0  0  0  0  0  0  0  0  0  0
   14.2280   15.3660    4.6980 C   0  0  0  0  0  0  0  0  0  0  0  0
   15.5240   15.8650    4.8320 C   0  0  0  0  0  0  0  0  0  0  0  0
   16.5870   15.2300    4.1930 C   0  0  0  0  0  0  0  0  0  0  0  0
   16.3510   14.0970    3.4140 C   0  0  0  0  0  0  0  0  0  0  0  0
   15.0530   13.6000    3.2760 C   0  0  0  0  0  0  0  0  0  0  0  0
    5.9413   12.7966    2.3384 H   0  0  0  0  0  0  0  0  0  0  0  0
    5.1019   11.6203    0.3098 H   0  0  0  0  0  0  0  0  0  0  0  0
    6.7135   10.4230   -1.1733 H   0  0  0  0  0  0  0  0  0  0  0  0
    9.1360   10.4353   -0.6324 H   0  0  0  0  0  0  0  0  0  0  0  0
    9.9642   14.4119    4.8231 H   0  0  0  0  0  0  0  0  0  0  0  0
    8.8095   15.3103    5.8351 H   0  0  0  0  0  0  0  0  0  0  0  0
   11.9498   14.5075    3.3264 H   0  0  0  0  0  0  0  0  0  0  0  0
   12.2135   13.4137    4.7609 H   0  0  0  0  0  0  0  0  0  0  0  0
   13.3946   15.8718    5.2075 H   0  0  0  0  0  0  0  0  0  0  0  0
   15.7069   16.7612    5.4431 H   0  0  0  0  0  0  0  0  0  0  0  0
   17.6093   15.6209    4.3025 H   0  0  0  0  0  0  0  0  0  0  0  0
   17.1883   13.5944    2.9078 H   0  0  0  0  0  0  0  0  0  0  0  0
   14.8732   12.7092    2.6562 H   0  0  0  0  0  0  0  0  0  0  0  0
  2  1  2  0
  3  2  1  0
  4  3  2  0
  5  4  1  0
  6  5  2  0
  6  1  1  0
  7  6  1  0
  8  7  2  0
  9  8  1  0
 10  9  2  0
 10  5  1  0
 11  1  1  0
 12 11  1  0
 14 12  1  0
 14 13  1  0
 15 14  2  0
 16  3  1  0
 17 16  1  0
 18 17  1  0
 19 18  2  0
 20 19  1  0
 21 20  2  0
 22 21  1  0
 23 18  1  0
 23 22  2  0
  7 24  1  0
  8 25  1  0
  9 26  1  0
 10 27  1  0
 12 28  1  0
 12 29  1  0
 17 30  1  0
 17 31  1  0
 19 32  1  0
 20 33  1  0
 21 34  1  0
 22 35  1  0
 23 36  1  0
M  CHG  1  13  -1
M  END
$$$$
=
     RDKit          3D

 39 40  0  0  0  0  0  0  0  0999 V2000
   13.9940   13.7970    3.5410 C   0  0  0  0  0  0  0  0  0  0  0  0
   14.9940   13.0240    2.9240 C   0  0  0  0  0  0  0  0  0  0  0  0
   16.3520   13.3080    3.1040 C   0  0  0  0  0  0  0  0  0  0  0  0
   16.7290   14.3830    3.9070 C   0  0  0  0  0  0  0  0  0  0  0  0
   15.7630   15.1670    4.5310 C   0  0  0  0  0  0  0  0  0  0  0  0
   14.4050   14.8710    4.3460 C   0  0  0  0  0  0  0  0  0  0  0  0
   11.4920   15.1020    4.6830 O   0  0  0  0  0  0  0  0  0  0  0  0
   11.5200   14.1660    3.8990 C   0  0  0  0  0  0  0  0  0  0  0  0
   10.2660   13.5720    3.3010 C   0  0  0  0  0  0  0  0  0  0  0  0
   10.7310   12.2260    2.7870 C   0  0  0  0  0  0  0  0  0  0  0  0
   12.1770   12.4760    2.4130 C   0  0  0  0  0  0  0  0  0  0  0  0
   12.6180   13.4860    3.3480 N   0  0  0  0  0  0  0  0  0  0  0  0
   18.4630   14.7300    4.1320 S   0  0  0  0  0  6  0  0  0  0  0  0
   19.1290   13.9980    3.0730 O   0  0  0  0  0  0  0  0  0  0  0  0
   18.7870   14.5140    5.5220 O   0  0  0  0  0  0  0  0  0  0  0  0
   18.5380   16.3660    3.7270 N   0  0  0  0  0  0  0  0  0  0  0  0
   19.8320   17.1460    3.9000 C   0  0  0  0  0  0  0  0  0  0  0  0
   20.9350   16.3690    4.5990 C   0  0  0  0  0  0  0  0  0  0  0  0
   19.4740   18.3780    4.7490 C   0  0  0  0  0  0  0  0  0  0  0  0
   20.2060   17.7650    2.5060 C   0  0  0  0  0  0  0  0  0  0  0  0
   21.3730   18.2740    2.4810 O   0  0  0  0  0  0  0  0  0  0  0  0
   19.3530   17.6430    1.5840 O   0  0  0  0  0  1  0  0  0  0  0  0
   14.7018   12.1772    2.2856 H   0  0  0  0  0  0  0  0  0  0  0  0
   17.1171   12.6870    2.6151 H   0  0  0  0  0  0  0  0  0  0  0  0
   16.0632   16.0139    5.1656 H   0  0  0  0  0  0  0  0  0  0  0  0
   13.6458   15.4935    4.8421 H   0  0  0  0  0  0  0  0  0  0  0  0
    9.4830   13.4535    4.0644 H   0  0  0  0  0  0  0  0  0  0  0  0
    9.8217   14.2028    2.5170 H   0  0  0  0  0  0  0  0  0  0  0  0
   10.6538   11.4572    3.5699 H   0  0  0  0  0  0  0  0  0  0  0  0
   10.1271   11.8546    1.9460 H   0  0  0  0  0  0  0  0  0  0  0  0
   12.7722   11.5574    2.5222 H   0  0  0  0  0  0  0  0  0  0  0  0
   12.2915   12.7936    1.3661 H   0  0  0  0  0  0  0  0  0  0  0  0
   18.2825   16.4355    2.7316 H   0  0  0  0  0  0  0  0  0  0  0  0
   20.8111   16.4563    5.6885 H   0  0  0  0  0  0  0  0  0  0  0  0
   20.8789   15.3099    4.3072 H   0  0  0  0  0  0  0  0  0  0  0  0
   21.9134   16.7784    4.3072 H   0  0  0  0  0  0  0  0  0  0  0  0
   19.5484   18.1220    5.8162 H   0  0  0  0  0  0  0  0  0  0  0  0
   20.1713   19.1971    4.5189 H   0  0  0  0  0  0  0  0  0  0  0  0
   18.4464   18.6958    4.5189 H   0  0  0  0  0  0  0  0  0  0  0  0
  2  1  2  0
  3  2  1  0
  4  3  2  0
  5  4  1  0
  6  5  2  0
  6  1  1  0
  8  7  2  0
  9  8  1  0
 10  9  1  0
 11 10  1  0
 12 11  1  0
 12  8  1  0
 12  1  1  0
 13  4  1  0
 14 13  2  0
 15 13  2  0
 16 13  1  0
 17 16  1  0
 18 17  1  0
 19 17  1  0
 20 17  1  0
 21 20  2  0
 22 20  1  0
  2 23  1  0
  3 24  1  0
  5 25  1  0
  6 26  1  0
  9 27  1  0
  9 28  1  0
 10 29  1  0
 10 30  1  0
 11 31  1  0
 11 32  1  0
 16 33  1  0
 18 34  1  0
 18 35  1  0
 18 36  1  0
 19 37  1  0
 19 38  1  0
 19 39  1  0
M  CHG  1  22  -1
M  END
$$$$
=
     RDKit          3D

 22 21  0  0  0  0  0  0  0  0999 V2000
   20.1870   15.9470    4.3260 C   0  0  0  0  0  0  0  0  0  0  0  0
   20.2220   17.4430    3.8850 N   0  0  0  0  0  4  0  0  0  0  0  0
   19.6930   17.5890    2.4710 C   0  0  0  0  0  0  0  0  0  0  0  0
   21.6320   17.9910    3.9870 C   0  0  0  0  0  0  0  0  0  0  0  0
   19.3160   18.2100    4.8380 C   0  0  0  0  0  0  0  0  0  0  0  0
   21.4120   15.5560    5.1190 C   0  0  0  0  0  0  0  0  0  0  0  0
   21.1820   15.5630    7.4390 O   0  0  0  0  0  1  0  0  0  0  0  0
   20.6890   15.1150    6.3730 C   0  0  0  0  0  0  0  0  0  0  0  0
   19.6580   14.4250    6.1590 O   0  0  0  0  0  0  0  0  0  0  0  0
   19.2950   15.7820    4.9481 H   0  0  0  0  0  0  0  0  0  0  0  0
   20.1619   15.3279    3.4171 H   0  0  0  0  0  0  0  0  0  0  0  0
   18.6331   17.8815    2.5044 H   0  0  0  0  0  0  0  0  0  0  0  0
   20.2701   18.3615    1.9416 H   0  0  0  0  0  0  0  0  0  0  0  0
   19.7922   16.6299    1.9416 H   0  0  0  0  0  0  0  0  0  0  0  0
   21.9080   18.0983    5.0464 H   0  0  0  0  0  0  0  0  0  0  0  0
   22.3309   17.2990    3.4943 H   0  0  0  0  0  0  0  0  0  0  0  0
   21.6801   18.9733    3.4943 H   0  0  0  0  0  0  0  0  0  0  0  0
   19.5933   17.9752    5.8763 H   0  0  0  0  0  0  0  0  0  0  0  0
   19.4303   19.2900    4.6632 H   0  0  0  0  0  0  0  0  0  0  0  0
   18.2697   17.9190    4.6632 H   0  0  0  0  0  0  0  0  0  0  0  0
   21.9743   14.7365    4.6475 H   0  0  0  0  0  0  0  0  0  0  0  0
   22.1848   16.3289    5.2430 H   0  0  0  0  0  0  0  0  0  0  0  0
  2  1  1  0
  3  2  1  0
  4  2  1  0
  5  2  1  0
  6  1  1  0
  8  6  1  0
  8  7  1  0
  9  8  2  0
  1 10  1  0
  1 11  1  0
  3 12  1  0
  3 13  1  0
  3 14  1  0
  4 15  1  0
  4 16  1  0
  4 17  1  0
  5 18  1  0
  5 19  1  0
  5 20  1  0
  6 21  1  0
  6 22  1  0
M  CHG  2   2   1   7  -1
M  END
$$$$
=
     RDKit          3D

 23 23  0  0  0  0  0  0  0  0999 V2000
   18.8390   15.0780    5.2210 C   0  0  0  0  0  0  0  0  0  0  0  0
   17.4220   15.1030    4.7020 C   0  0  0  0  0  0  0  0  0  0  0  0
   16.4650   15.9710    5.2530 C   0  0  0  0  0  0  0  0  0  0  0  0
   15.1510   15.9820    4.7770 C   0  0  0  0  0  0  0  0  0  0  0  0
   14.7740   15.1160    3.7530 C   0  0  0  0  0  0  0  0  0  0  0  0
   15.7150   14.2490    3.2130 C   0  0  0  0  0  0  0  0  0  0  0  0
   17.0270   14.2340    3.6750 C   0  0  0  0  0  0  0  0  0  0  0  0
   15.3500   13.4100    2.2340 F   0  0  0  0  0  0  0  0  0  0  0  0
   19.8900   16.2830    4.4210 S   0  0  0  0  0  6  0  0  0  0  0  0
   19.5140   17.5460    5.0370 O   0  0  0  0  0  0  0  0  0  0  0  0
   19.7160   16.0960    2.9890 O   0  0  0  0  0  0  0  0  0  0  0  0
   21.5080   15.7790    4.9290 C   0  0  0  0  0  0  0  0  0  0  0  0
   22.6030   17.3640    6.2600 O   0  0  0  0  0  1  0  0  0  0  0  0
   21.8250   16.3710    6.2650 C   0  0  0  0  0  0  0  0  0  0  0  0
   21.3630   15.7270    7.2510 O   0  0  0  0  0  0  0  0  0  0  0  0
   18.8218   15.2880    6.3006 H   0  0  0  0  0  0  0  0  0  0  0  0
   19.2533   14.0819    5.0061 H   0  0  0  0  0  0  0  0  0  0  0  0
   16.7532   16.6502    6.0689 H   0  0  0  0  0  0  0  0  0  0  0  0
   14.4146   16.6744    5.2109 H   0  0  0  0  0  0  0  0  0  0  0  0
   13.7407   15.1189    3.3757 H   0  0  0  0  0  0  0  0  0  0  0  0
   17.7563   13.5388    3.2336 H   0  0  0  0  0  0  0  0  0  0  0  0
   21.5443   14.6817    4.9975 H   0  0  0  0  0  0  0  0  0  0  0  0
   22.2461   16.1281    4.1919 H   0  0  0  0  0  0  0  0  0  0  0  0
  2  1  1  0
  3  2  2  0
  4  3  1  0
  5  4  2  0
  6  5  1  0
  7  6  2  0
  7  2  1  0
  8  6  1  0
  9  1  1  0
 10  9  2  0
 11  9  2  0
 12  9  1  0
 14 12  1  0
 14 13  1  0
 15 14  2  0
  1 16  1  0
  1 17  1  0
  3 18  1  0
  4 19  1  0
  5 20  1  0
  7 21  1  0
 12 22  1  0
 12 23  1  0
M  CHG  1  13  -1
M  END
$$$$
=
     RDKit          3D

 38 38  0  0  0  0  0  0  0  0999 V2000
   17.0830   14.3310    3.9200 C   0  0  2  0  0  0  0  0  0  0  0  0
   17.2700   15.6790    6.5380 O   0  0  0  0  0  0  0  0  0  0  0  0
   17.5750   16.2390    5.4950 C   0  0  0  0  0  0  0  0  0  0  0  0
   17.4360   15.7280    4.2530 N   0  0  0  0  0  0  0  0  0  0  0  0
   18.1090   17.4810    5.4000 O   0  0  0  0  0  0  0  0  0  0  0  0
   19.5130   17.6660    5.1040 C   0  0  0  0  0  0  0  0  0  0  0  0
   19.7480   17.8450    3.6000 C   0  0  0  0  0  0  0  0  0  0  0  0
   20.3630   16.5300    5.6840 C   0  0  0  0  0  0  0  0  0  0  0  0
   19.8940   18.9740    5.8160 C   0  0  0  0  0  0  0  0  0  0  0  0
   18.3540   13.5260    3.4870 C   0  0  0  0  0  0  0  0  0  0  0  0
   18.1570   12.2740    3.3750 O   0  0  0  0  0  0  0  0  0  0  0  0
   19.4110   14.1890    3.2930 O   0  0  0  0  0  1  0  0  0  0  0  0
   16.0460   14.2670    2.7880 C   0  0  0  0  0  0  0  0  0  0  0  0
   14.6560   13.9110    3.2750 C   0  0  0  0  0  0  0  0  0  0  0  0
   13.9870   14.7420    4.1840 C   0  0  0  0  0  0  0  0  0  0  0  0
   12.7020   14.4190    4.6270 C   0  0  0  0  0  0  0  0  0  0  0  0
   12.0700   13.2680    4.1570 C   0  0  0  0  0  0  0  0  0  0  0  0
   12.7240   12.4560    3.2390 C   0  0  0  0  0  0  0  0  0  0  0  0
   14.0090   12.7650    2.7980 C   0  0  0  0  0  0  0  0  0  0  0  0
   12.0700   11.3520    2.7720 O   0  0  0  0  0  0  0  0  0  0  0  0
   16.6507   13.8835    4.8271 H   0  0  0  0  0  0  0  0  0  0  0  0
   17.5903   16.3714    3.4636 H   0  0  0  0  0  0  0  0  0  0  0  0
   20.6138   18.5045    3.4401 H   0  0  0  0  0  0  0  0  0  0  0  0
   19.9437   16.8650    3.1403 H   0  0  0  0  0  0  0  0  0  0  0  0
   18.8552   18.2940    3.1403 H   0  0  0  0  0  0  0  0  0  0  0  0
   20.3312   16.5725    6.7827 H   0  0  0  0  0  0  0  0  0  0  0  0
   19.9648   15.5631    5.3428 H   0  0  0  0  0  0  0  0  0  0  0  0
   21.4030   16.6392    5.3428 H   0  0  0  0  0  0  0  0  0  0  0  0
   19.8505   18.8248    6.9050 H   0  0  0  0  0  0  0  0  0  0  0  0
   20.9144   19.2654    5.5263 H   0  0  0  0  0  0  0  0  0  0  0  0
   19.1897   19.7678    5.5263 H   0  0  0  0  0  0  0  0  0  0  0  0
   16.0036   15.2499    2.2960 H   0  0  0  0  0  0  0  0  0  0  0  0
   16.3644   13.4736    2.0958 H   0  0  0  0  0  0  0  0  0  0  0  0
   14.4775   15.6555    4.5514 H   0  0  0  0  0  0  0  0  0  0  0  0
   12.1883   15.0730    5.3470 H   0  0  0  0  0  0  0  0  0  0  0  0
   11.0619   13.0053    4.5103 H   0  0  0  0  0  0  0  0  0  0  0  0
   14.5151   12.1084    2.0750 H   0  0  0  0  0  0  0  0  0  0  0  0
   12.5116   10.7552    2.1171 H   0  0  0  0  0  0  0  0  0  0  0  0
  3  2  2  0
  4  1  1  0
  4  3  1  0
  5  3  1  0
  6  5  1  0
  7  6  1  0
  8  6  1  0
  9  6  1  0
 10  1  1  0
 11 10  2  0
 12 10  1  0
 13  1  1  0
 14 13  1  0
 15 14  2  0
 16 15  1  0
 17 16  2  0
 18 17  1  0
 19 18  2  0
 19 14  1  0
 20 18  1  0
  1 21  1  1
  4 22  1  0
  7 23  1  0
  7 24  1  0
  7 25  1  0
  8 26  1  0
  8 27  1  0
  8 28  1  0
  9 29  1  0
  9 30  1  0
  9 31  1  0
 13 32  1  0
 13 33  1  0
 15 34  1  0
 16 35  1  0
 17 36  1  0
 19 37  1  0
 20 38  1  0
M  CHG  1  12  -1
M  END
$$$$
=
     RDKit          3D

 39 41  0  0  0  0  0  0  0  0999 V2000
   10.0740   13.6000    5.2280 C   0  0  0  0  0  0  0  0  0  0  0  0
   11.3800   13.8280    5.4860 N   0  0  0  0  0  0  0  0  0  0  0  0
   11.9330   13.6930    4.2700 N   0  0  0  0  0  0  0  0  0  0  0  0
   11.1030   13.3930    3.2480 N   0  0  0  0  0  0  0  0  0  0  0  0
    9.9030   13.3030    3.8440 C   0  0  0  0  0  0  0  0  0  0  0  0
    8.7840   12.9550    3.1450 N   0  0  0  0  0  0  0  0  0  0  0  0
    8.8020   12.9290    1.6810 C   0  0  0  0  0  0  0  0  0  0  0  0
    7.3810   13.1150    1.1320 C   0  0  0  0  0  0  0  0  0  0  0  0
    6.4650   12.0920    1.5480 O   0  0  0  0  0  0  0  0  0  0  0  0
    6.7500   11.5950    2.8680 C   0  0  0  0  0  0  0  0  0  0  0  0
    7.5160   12.5750    3.7760 C   0  0  0  0  0  0  0  0  0  0  0  0
   13.3320   13.8600    4.0650 C   0  0  0  0  0  0  0  0  0  0  0  0
   14.0320   12.9790    3.2340 C   0  0  0  0  0  0  0  0  0  0  0  0
   15.4050   13.1490    3.0370 C   0  0  0  0  0  0  0  0  0  0  0  0
   16.0980   14.1970    3.6640 C   0  0  0  0  0  0  0  0  0  0  0  0
   15.3970   15.0870    4.5030 C   0  0  0  0  0  0  0  0  0  0  0  0
   14.0160   14.9100    4.6950 C   0  0  0  0  0  0  0  0  0  0  0  0
   16.0910   16.2250    5.1990 C   0  0  0  0  0  0  0  0  0  0  0  0
   17.5770   14.3460    3.4270 C   0  0  0  0  0  0  0  0  0  0  0  0
    8.8530   12.7020    7.1530 O   0  0  0  0  0  1  0  0  0  0  0  0
    8.9300   13.6690    6.3280 C   0  0  0  0  0  0  0  0  0  0  0  0
    8.1810   14.6980    6.3180 O   0  0  0  0  0  0  0  0  0  0  0  0
    9.4442   13.7417    1.3107 H   0  0  0  0  0  0  0  0  0  0  0  0
    9.1939   11.9583    1.3433 H   0  0  0  0  0  0  0  0  0  0  0  0
    6.9986   14.0861    1.4793 H   0  0  0  0  0  0  0  0  0  0  0  0
    7.4495   13.0596    0.0355 H   0  0  0  0  0  0  0  0  0  0  0  0
    5.7945   11.3522    3.3559 H   0  0  0  0  0  0  0  0  0  0  0  0
    7.4041   10.7207    2.7350 H   0  0  0  0  0  0  0  0  0  0  0  0
    6.9051   13.4754    3.9377 H   0  0  0  0  0  0  0  0  0  0  0  0
    7.7237   12.0876    4.7400 H   0  0  0  0  0  0  0  0  0  0  0  0
   13.5023   12.1534    2.7362 H   0  0  0  0  0  0  0  0  0  0  0  0
   15.9499   12.4529    2.3824 H   0  0  0  0  0  0  0  0  0  0  0  0
   13.4649   15.6034    5.3473 H   0  0  0  0  0  0  0  0  0  0  0  0
   16.0103   16.0927    6.2880 H   0  0  0  0  0  0  0  0  0  0  0  0
   17.1520   16.2398    4.9091 H   0  0  0  0  0  0  0  0  0  0  0  0
   15.6184   17.1750    4.9091 H   0  0  0  0  0  0  0  0  0  0  0  0
   18.0997   14.3987    4.3934 H   0  0  0  0  0  0  0  0  0  0  0  0
   17.9461   13.4805    2.8572 H   0  0  0  0  0  0  0  0  0  0  0  0
   17.7660   15.2677    2.8572 H   0  0  0  0  0  0  0  0  0  0  0  0
  2  1  2  0
  3  2  1  0
  4  3  1  0
  5  1  1  0
  5  4  2  0
  6  5  1  0
  7  6  1  0
  8  7  1  0
  9  8  1  0
 10  9  1  0
 11 10  1  0
 11  6  1  0
 12  3  1  0
 13 12  2  0
 14 13  1  0
 15 14  2  0
 16 15  1  0
 17 16  2  0
 17 12  1  0
 18 16  1  0
 19 15  1  0
 21  1  1  0
 21 20  1  0
 22 21  2  0
  7 23  1  0
  7 24  1  0
  8 25  1  0
  8 26  1  0
 10 27  1  0
 10 28  1  0
 11 29  1  0
 11 30  1  0
 13 31  1  0
 14 32  1  0
 17 33  1  0
 18 34  1  0
 18 35  1  0
 18 36  1  0
 19 37  1  0
 19 38  1  0
 19 39  1  0
M  CHG  1  20  -1
M  END
$$$$
=
     RDKit          3D

 13 12  0  0  0  0  0  0  0  0999 V2000
   20.5890   16.1030    5.1290 C   0  0  1  0  0  0  0  0  0  0  0  0
   19.7350   17.8690    4.9380 Br  0  0  0  0  0  0  0  0  0  0  0  0
   21.1220   15.4220    7.3350 O   0  0  0  0  0  1  0  0  0  0  0  0
   21.4800   16.1780    6.3830 C   0  0  0  0  0  0  0  0  0  0  0  0
   22.4380   17.0030    6.3440 O   0  0  0  0  0  0  0  0  0  0  0  0
   19.5210   15.0160    5.1950 C   0  0  0  0  0  0  0  0  0  0  0  0
   18.9200   14.6870    3.8330 C   0  0  0  0  0  0  0  0  0  0  0  0
   21.2185   15.8397    4.2662 H   0  0  0  0  0  0  0  0  0  0  0  0
   19.9753   14.1030    5.6073 H   0  0  0  0  0  0  0  0  0  0  0  0
   18.7068   15.3933    5.8312 H   0  0  0  0  0  0  0  0  0  0  0  0
   17.9628   14.1630    3.9715 H   0  0  0  0  0  0  0  0  0  0  0  0
   18.7505   15.6181    3.2724 H   0  0  0  0  0  0  0  0  0  0  0  0
   19.6131   14.0425    3.2724 H   0  0  0  0  0  0  0  0  0  0  0  0
  2  1  1  0
  4  1  1  0
  4  3  1  0
  5  4  2  0
  6  1  1  0
  7  6  1  0
  1  8  1  6
  6  9  1  0
  6 10  1  0
  7 11  1  0
  7 12  1  0
  7 13  1  0
M  CHG  1   3  -1
M  END
$$$$
=
     RDKit          3D

 25 26  0  0  0  0  0  0  0  0999 V2000
   19.5160   15.3520    4.4440 C   0  0  0  0  0  0  0  0  0  0  0  0
   19.1450   14.0890    3.9390 C   0  0  0  0  0  0  0  0  0  0  0  0
   17.8250   13.8190    3.5710 C   0  0  0  0  0  0  0  0  0  0  0  0
   17.5590   12.5520    3.1190 O   0  0  0  0  0  0  0  0  0  0  0  0
   16.1510   12.2990    3.0600 C   0  0  0  0  0  0  0  0  0  0  0  0
   15.4170   13.4800    2.4480 C   0  0  0  0  0  0  0  0  0  0  0  0
   15.5490   14.6360    3.2800 O   0  0  0  0  0  0  0  0  0  0  0  0
   16.8550   14.8210    3.6590 C   0  0  0  0  0  0  0  0  0  0  0  0
   17.1900   16.0760    4.1570 C   0  0  0  0  0  0  0  0  0  0  0  0
   18.5160   16.3380    4.5430 C   0  0  0  0  0  0  0  0  0  0  0  0
   18.7750   17.6640    5.1060 N   0  0  0  0  0  4  0  0  0  0  0  0
   19.5080   18.4260    4.4560 O   0  0  0  0  0  0  0  0  0  0  0  0
   18.1160   17.9980    6.1040 O   0  0  0  0  0  1  0  0  0  0  0  0
   20.9790   15.5850    4.7450 C   0  0  0  0  0  0  0  0  0  0  0  0
   21.8060   16.6600    6.6780 O   0  0  0  0  0  1  0  0  0  0  0  0
   21.2070   15.6290    6.2570 C   0  0  0  0  0  0  0  0  0  0  0  0
   20.7690   14.6320    6.8960 O   0  0  0  0  0  0  0  0  0  0  0  0
   19.9076   13.3034    3.8331 H   0  0  0  0  0  0  0  0  0  0  0  0
   15.9705   11.4044    2.4459 H   0  0  0  0  0  0  0  0  0  0  0  0
   15.7772   12.1425    4.0826 H   0  0  0  0  0  0  0  0  0  0  0  0
   15.8421   13.6966    1.4569 H   0  0  0  0  0  0  0  0  0  0  0  0
   14.3504   13.2275    2.3554 H   0  0  0  0  0  0  0  0  0  0  0  0
   16.4221   16.8583    4.2481 H   0  0  0  0  0  0  0  0  0  0  0  0
   21.5738   14.7675    4.3115 H   0  0  0  0  0  0  0  0  0  0  0  0
   21.2867   16.5462    4.3076 H   0  0  0  0  0  0  0  0  0  0  0  0
  2  1  2  0
  3  2  1  0
  4  3  1  0
  5  4  1  0
  6  5  1  0
  7  6  1  0
  8  7  1  0
  8  3  2  0
  9  8  1  0
 10  9  2  0
 10  1  1  0
 11 10  1  0
 12 11  2  0
 13 11  1  0
 14  1  1  0
 16 14  1  0
 16 15  1  0
 17 16  2  0
  2 18  1  0
  5 19  1  0
  5 20  1  0
  6 21  1  0
  6 22  1  0
  9 23  1  0
 14 24  1  0
 14 25  1  0
M  CHG  3  11   1  13  -1  15  -1
M  END
$$$$
=
     RDKit          3D

 38 38  0  0  0  0  0  0  0  0999 V2000
   18.4220   15.8030    4.3380 N   0  0  0  0  0  0  0  0  0  0  0  0
   19.2850   16.5800    3.6180 C   0  0  0  0  0  0  0  0  0  0  0  0
   19.0040   17.0480    2.5170 O   0  0  0  0  0  0  0  0  0  0  0  0
   20.4870   16.8610    4.2610 N   0  0  0  0  0  0  0  0  0  0  0  0
   20.8480   16.3380    5.5790 C   0  0  0  0  0  0  0  0  0  0  0  0
   22.2770   16.6880    5.9880 C   0  0  0  0  0  0  0  0  0  0  0  0
   22.5530   18.1850    5.8680 C   0  0  0  0  0  0  0  0  0  0  0  0
   21.9320   18.8130    4.6180 C   0  0  0  0  0  0  0  0  0  0  0  0
   21.4300   17.7720    3.6240 C   0  0  0  0  0  0  0  0  0  0  0  0
   17.1800   15.2140    3.7670 C   0  0  1  0  0  0  0  0  0  0  0  0
   17.4990   13.7490    3.2930 C   0  0  0  0  0  0  0  0  0  0  0  0
   16.4590   13.0430    3.0850 O   0  0  0  0  0  0  0  0  0  0  0  0
   18.7170   13.4310    3.2130 O   0  0  0  0  0  1  0  0  0  0  0  0
   16.0480   15.2500    4.8280 C   0  0  1  0  0  0  0  0  0  0  0  0
   16.4780   16.1000    6.0380 C   0  0  0  0  0  0  0  0  0  0  0  0
   13.5760   14.8010    4.3420 C   0  0  0  0  0  0  0  0  0  0  0  0
   14.7130   15.8130    4.2850 C   0  0  0  0  0  0  0  0  0  0  0  0
   18.6422   15.6152    5.3265 H   0  0  0  0  0  0  0  0  0  0  0  0
   20.1569   16.7584    6.3244 H   0  0  0  0  0  0  0  0  0  0  0  0
   20.7791   15.2413    5.5284 H   0  0  0  0  0  0  0  0  0  0  0  0
   22.4335   16.3801    7.0324 H   0  0  0  0  0  0  0  0  0  0  0  0
   22.9645   16.1592    5.3114 H   0  0  0  0  0  0  0  0  0  0  0  0
   22.1405   18.6890    6.7545 H   0  0  0  0  0  0  0  0  0  0  0  0
   23.6430   18.3119    5.7912 H   0  0  0  0  0  0  0  0  0  0  0  0
   21.0847   19.4438    4.9250 H   0  0  0  0  0  0  0  0  0  0  0  0
   22.7157   19.4001    4.1168 H   0  0  0  0  0  0  0  0  0  0  0  0
   22.2857   17.1961    3.2418 H   0  0  0  0  0  0  0  0  0  0  0  0
   20.9181   18.2897    2.7994 H   0  0  0  0  0  0  0  0  0  0  0  0
   16.8315   15.7944    2.9000 H   0  0  0  0  0  0  0  0  0  0  0  0
   15.8770   14.2033    5.1198 H   0  0  0  0  0  0  0  0  0  0  0  0
   16.2125   15.5753    6.9676 H   0  0  0  0  0  0  0  0  0  0  0  0
   17.5657   16.2605    6.0053 H   0  0  0  0  0  0  0  0  0  0  0  0
   15.9629   17.0714    6.0053 H   0  0  0  0  0  0  0  0  0  0  0  0
   13.3313   14.5832    5.3921 H   0  0  0  0  0  0  0  0  0  0  0  0
   12.6907   15.2154    3.8375 H   0  0  0  0  0  0  0  0  0  0  0  0
   13.8849   13.8736    3.8375 H   0  0  0  0  0  0  0  0  0  0  0  0
   14.8602   16.1169    3.2381 H   0  0  0  0  0  0  0  0  0  0  0  0
   14.4300   16.6637    4.9223 H   0  0  0  0  0  0  0  0  0  0  0  0
  2  1  1  0
  3  2  2  0
  4  2  1  0
  5  4  1  0
  6  5  1  0
  7  6  1  0
  8  7  1  0
  9  4  1  0
  9  8  1  0
 10  1  1  0
 11 10  1  0
 12 11  2  0
 13 11  1  0
 14 10  1  0
 15 14  1  0
 17 16  1  0
 17 14  1  0
  1 18  1  0
  5 19  1  0
  5 20  1  0
  6 21  1  0
  6 22  1  0
  7 23  1  0
  7 24  1  0
  8 25  1  0
  8 26  1  0
  9 27  1  0
  9 28  1  0
 10 29  1  6
 14 30  1  1
 15 31  1  0
 15 32  1  0
 15 33  1  0
 16 34  1  0
 16 35  1  0
 16 36  1  0
 17 37  1  0
 17 38  1  0
M  CHG  1  13  -1
M  END
$$$$
=
     RDKit          3D

 29 30  0  0  0  0  0  0  0  0999 V2000
   17.9120   15.7020    4.6240 C   0  0  0  0  0  0  0  0  0  0  0  0
   17.0860   16.6890    5.1810 C   0  0  0  0  0  0  0  0  0  0  0  0
   15.6980   16.5820    5.1110 C   0  0  0  0  0  0  0  0  0  0  0  0
   15.1210   15.4850    4.4830 C   0  0  0  0  0  0  0  0  0  0  0  0
   15.9310   14.4910    3.9160 C   0  0  0  0  0  0  0  0  0  0  0  0
   17.3400   14.5920    3.9750 C   0  0  0  0  0  0  0  0  0  0  0  0
   18.1190   13.6460    3.4120 N   0  0  0  0  0  0  0  0  0  0  0  0
   17.5460   12.5800    2.8190 C   0  0  0  0  0  0  0  0  0  0  0  0
   16.1830   12.4010    2.7250 C   0  0  0  0  0  0  0  0  0  0  0  0
   15.3640   13.3760    3.2790 C   0  0  0  0  0  0  0  0  0  0  0  0
   19.8110   14.6100    6.6500 O   0  0  0  0  0  0  0  0  0  0  0  0
   20.1640   15.2370    5.6490 C   0  0  0  0  0  0  0  0  0  0  0  0
   19.3310   15.7660    4.6900 N   0  0  0  0  0  0  0  0  0  0  0  0
   21.6440   15.5160    5.4290 C   0  0  0  0  0  0  0  0  0  0  0  0
   22.0950   16.8600    5.9820 C   0  0  0  0  0  0  0  0  0  0  0  0
   22.4380   17.8920    4.9130 C   0  0  0  0  0  0  0  0  0  0  0  0
   23.5420   18.4850    5.0620 O   0  0  0  0  0  0  0  0  0  0  0  0
   21.5680   18.0220    4.0080 O   0  0  0  0  0  1  0  0  0  0  0  0
   17.5392   17.5586    5.6794 H   0  0  0  0  0  0  0  0  0  0  0  0
   15.0614   17.3635    5.5515 H   0  0  0  0  0  0  0  0  0  0  0  0
   14.0258   15.3962    4.4306 H   0  0  0  0  0  0  0  0  0  0  0  0
   18.2024   11.8106    2.3863 H   0  0  0  0  0  0  0  0  0  0  0  0
   15.7583   11.5162    2.2282 H   0  0  0  0  0  0  0  0  0  0  0  0
   14.2704   13.2746    3.2187 H   0  0  0  0  0  0  0  0  0  0  0  0
   19.7943   16.2728    3.9223 H   0  0  0  0  0  0  0  0  0  0  0  0
   22.2253   14.7232    5.9226 H   0  0  0  0  0  0  0  0  0  0  0  0
   21.8116   15.5396    4.3421 H   0  0  0  0  0  0  0  0  0  0  0  0
   21.2850   17.2657    6.6060 H   0  0  0  0  0  0  0  0  0  0  0  0
   23.0184   16.6744    6.5503 H   0  0  0  0  0  0  0  0  0  0  0  0
  2  1  2  0
  3  2  1  0
  4  3  2  0
  5  4  1  0
  6  5  2  0
  6  1  1  0
  7  6  1  0
  8  7  2  0
  9  8  1  0
 10  9  2  0
 10  5  1  0
 12 11  2  0
 13  1  1  0
 13 12  1  0
 14 12  1  0
 15 14  1  0
 16 15  1  0
 17 16  2  0
 18 16  1  0
  2 19  1  0
  3 20  1  0
  4 21  1  0
  8 22  1  0
  9 23  1  0
 10 24  1  0
 13 25  1  0
 14 26  1  0
 14 27  1  0
 15 28  1  0
 15 29  1  0
M  CHG  1  18  -1
M  END
$$$$
=
     RDKit          3D

 46 47  0  0  0  0  0  0  0  0999 V2000
   11.0820   13.1950    4.1610 C   0  0  2  0  0  0  0  0  0  0  0  0
   12.5860   13.3390    3.9250 C   0  0  0  0  0  0  0  0  0  0  0  0
   13.3120   12.4440    3.1300 C   0  0  0  0  0  0  0  0  0  0  0  0
   14.6790   12.6330    2.9230 C   0  0  0  0  0  0  0  0  0  0  0  0
   15.3350   13.7400    3.4710 C   0  0  0  0  0  0  0  0  0  0  0  0
   14.6290   14.6510    4.2710 C   0  0  0  0  0  0  0  0  0  0  0  0
   13.2620   14.4330    4.4930 C   0  0  0  0  0  0  0  0  0  0  0  0
   15.3270   15.6930    4.8290 O   0  0  0  0  0  0  0  0  0  0  0  0
   15.8460   15.4680    6.1360 C   0  0  0  0  0  0  0  0  0  0  0  0
   16.6760   13.8080    3.1770 O   0  0  0  0  0  0  0  0  0  0  0  0
   17.2680   12.5430    2.8940 C   0  0  0  0  0  0  0  0  0  0  0  0
    9.1660   12.5240    2.6960 C   0  0  0  0  0  0  0  0  0  0  0  0
    8.5120   11.9900    3.5840 O   0  0  0  0  0  0  0  0  0  0  0  0
   10.3730   13.1580    2.8740 N   0  0  0  0  0  0  0  0  0  0  0  0
    7.5500   12.5980   -1.2880 C   0  0  0  0  0  0  0  0  0  0  0  0
    6.9670   13.3420   -0.2590 C   0  0  0  0  0  0  0  0  0  0  0  0
    7.4970   13.3090    1.0330 C   0  0  0  0  0  0  0  0  0  0  0  0
    8.6300   12.5370    1.3060 C   0  0  0  0  0  0  0  0  0  0  0  0
    9.2070   11.7760    0.2810 C   0  0  0  0  0  0  0  0  0  0  0  0
    8.6700   11.8110   -1.0120 C   0  0  0  0  0  0  0  0  0  0  0  0
    7.4150   11.8910   -3.5540 C   0  0  0  0  0  0  0  0  0  0  0  0
    6.9330   12.7190   -2.5040 O   0  0  0  0  0  0  0  0  0  0  0  0
   10.5320   14.3500    4.9910 C   0  0  0  0  0  0  0  0  0  0  0  0
    9.7300   13.9060    6.2070 C   0  0  0  0  0  0  0  0  0  0  0  0
    8.4870   14.1120    6.1710 O   0  0  0  0  0  0  0  0  0  0  0  0
   10.4310   13.4110    7.1370 O   0  0  0  0  0  1  0  0  0  0  0  0
   10.9225   12.2567    4.7124 H   0  0  0  0  0  0  0  0  0  0  0  0
   12.8019   11.5870    2.6659 H   0  0  0  0  0  0  0  0  0  0  0  0
   15.2455   11.9051    2.3237 H   0  0  0  0  0  0  0  0  0  0  0  0
   12.7037   15.1364    5.1283 H   0  0  0  0  0  0  0  0  0  0  0  0
   15.1064   15.7886    6.8844 H   0  0  0  0  0  0  0  0  0  0  0  0
   16.0590   14.3967    6.2665 H   0  0  0  0  0  0  0  0  0  0  0  0
   16.7735   16.0448    6.2665 H   0  0  0  0  0  0  0  0  0  0  0  0
   17.5076   12.0310    3.8376 H   0  0  0  0  0  0  0  0  0  0  0  0
   16.5632   11.9301    2.3130 H   0  0  0  0  0  0  0  0  0  0  0  0
   18.1901   12.6915    2.3130 H   0  0  0  0  0  0  0  0  0  0  0  0
   10.8016   13.6305    2.0653 H   0  0  0  0  0  0  0  0  0  0  0  0
    6.0815   13.9601   -0.4685 H   0  0  0  0  0  0  0  0  0  0  0  0
    7.0223   13.8912    1.8366 H   0  0  0  0  0  0  0  0  0  0  0  0
   10.0853   11.1485    0.4926 H   0  0  0  0  0  0  0  0  0  0  0  0
    9.1324   11.2161   -1.8134 H   0  0  0  0  0  0  0  0  0  0  0  0
    7.9248   11.0153   -3.1258 H   0  0  0  0  0  0  0  0  0  0  0  0
    6.5704   11.5566   -4.1744 H   0  0  0  0  0  0  0  0  0  0  0  0
    8.1228   12.4603   -4.1744 H   0  0  0  0  0  0  0  0  0  0  0  0
   11.3781   14.9614    5.3380 H   0  0  0  0  0  0  0  0  0  0  0  0
    9.8446   14.9121    4.3418 H   0  0  0  0  0  0  0  0  0  0  0  0
  2  1  1  0
  3  2  2  0
  4  3  1  0
  5  4  2  0
  6  5  1  0
  7  6  2  0
  7  2  1  0
  8  6  1  0
  9  8  1  0
 10  5  1  0
 11 10  1  0
 13 12  2  0
 14 12  1  0
 14  1  1  0
 16 15  2  0
 17 16  1  0
 18 17  2  0
 18 12  1  0
 19 18  1  0
 20 19  2  0
 20 15  1  0
 22 21  1  0
 22 15  1  0
 23  1  1  0
 24 23  1  0
 25 24  2  0
 26 24  1  0
  1 27  1  1
  3 28  1  0
  4 29  1  0
  7 30  1  0
  9 31  1  0
  9 32  1  0
  9 33  1  0
 11 34  1  0
 11 35  1  0
 11 36  1  0
 14 37  1  0
 16 38  1  0
 17 39  1  0
 19 40  1  0
 20 41  1  0
 21 42  1  0
 21 43  1  0
 21 44  1  0
 23 45  1  0
 23 46  1  0
M  CHG  1  26  -1
M  END
$$$$
=
     RDKit          3D

 55 56  0  0  0  0  0  0  0  0999 V2000
   15.9070   16.5770    5.0650 C   0  0  0  0  0  0  0  0  0  0  0  0
   16.9050   15.9190    5.8660 O   0  0  0  0  0  0  0  0  0  0  0  0
   19.2310   15.6720    5.3840 C   0  0  0  0  0  0  0  0  0  0  0  0
   18.1470   16.4840    5.7480 C   0  0  0  0  0  0  0  0  0  0  0  0
   18.3110   17.8630    5.9110 C   0  0  0  0  0  0  0  0  0  0  0  0
   19.5690   18.4460    5.7630 C   0  0  0  0  0  0  0  0  0  0  0  0
   20.6770   17.6560    5.4360 C   0  0  0  0  0  0  0  0  0  0  0  0
   20.4980   16.2700    5.2480 C   0  0  0  0  0  0  0  0  0  0  0  0
   22.0330   18.2640    5.2830 C   0  0  0  0  0  0  0  0  0  0  0  0
   22.9010   18.0230    6.1240 O   0  0  0  0  0  0  0  0  0  0  0  0
   22.3170   19.1610    4.1050 C   0  0  0  0  0  0  0  0  0  0  0  0
   21.5480   15.4420    4.9270 O   0  0  0  0  0  0  0  0  0  0  0  0
   19.0480   14.1830    5.1800 C   0  0  0  0  0  0  0  0  0  0  0  0
   18.5410   12.3540    3.5250 C   0  0  0  0  0  0  0  0  0  0  0  0
   18.6360   13.8560    3.7440 C   0  0  0  0  0  0  0  0  0  0  0  0
   15.1910   15.5550    4.1850 C   0  0  0  0  0  0  0  0  0  0  0  0
   14.4550   14.6380    5.0110 O   0  0  0  0  0  0  0  0  0  0  0  0
   13.3890   14.0880    4.3450 C   0  0  0  0  0  0  0  0  0  0  0  0
   12.1530   14.7050    4.5300 C   0  0  0  0  0  0  0  0  0  0  0  0
   11.0190   14.1850    3.9050 C   0  0  0  0  0  0  0  0  0  0  0  0
   11.1150   13.0450    3.0970 C   0  0  0  0  0  0  0  0  0  0  0  0
   12.3590   12.4100    2.9550 C   0  0  0  0  0  0  0  0  0  0  0  0
   13.5050   12.9190    3.5780 C   0  0  0  0  0  0  0  0  0  0  0  0
   14.7530   12.3550    3.5070 O   0  0  0  0  0  0  0  0  0  0  0  0
   15.4460   12.4810    2.2700 C   0  0  0  0  0  0  0  0  0  0  0  0
    9.8940   12.5140    2.4770 C   0  0  0  0  0  0  0  0  0  0  0  0
    9.8580   11.4580    1.6480 C   0  0  0  0  0  0  0  0  0  0  0  0
    8.5580   10.9430    1.0300 C   0  0  0  0  0  0  0  0  0  0  0  0
    7.5590   11.0430    1.7990 O   0  0  0  0  0  0  0  0  0  0  0  0
    8.6330   10.4910   -0.1460 O   0  0  0  0  0  1  0  0  0  0  0  0
   15.1753   17.0673    5.7240 H   0  0  0  0  0  0  0  0  0  0  0  0
   16.3932   17.3285    4.4255 H   0  0  0  0  0  0  0  0  0  0  0  0
   17.4426   18.4916    6.1574 H   0  0  0  0  0  0  0  0  0  0  0  0
   19.6909   19.5301    5.9037 H   0  0  0  0  0  0  0  0  0  0  0  0
   22.6307   20.1517    4.4657 H   0  0  0  0  0  0  0  0  0  0  0  0
   23.1200   18.7218    3.4949 H   0  0  0  0  0  0  0  0  0  0  0  0
   21.4075   19.2640    3.4949 H   0  0  0  0  0  0  0  0  0  0  0  0
   22.4585   15.8158    4.8205 H   0  0  0  0  0  0  0  0  0  0  0  0
   19.9967   13.6731    5.4037 H   0  0  0  0  0  0  0  0  0  0  0  0
   18.2484   13.8401    5.8530 H   0  0  0  0  0  0  0  0  0  0  0  0
   18.5087   11.8428    4.4985 H   0  0  0  0  0  0  0  0  0  0  0  0
   17.6265   12.1231    2.9591 H   0  0  0  0  0  0  0  0  0  0  0  0
   19.4192   12.0097    2.9591 H   0  0  0  0  0  0  0  0  0  0  0  0
   19.3838   14.2723    3.0530 H   0  0  0  0  0  0  0  0  0  0  0  0
   17.6458   14.2974    3.5577 H   0  0  0  0  0  0  0  0  0  0  0  0
   14.4973   16.0763    3.5090 H   0  0  0  0  0  0  0  0  0  0  0  0
   15.9333   14.9986    3.5939 H   0  0  0  0  0  0  0  0  0  0  0  0
   12.0718   15.5986    5.1664 H   0  0  0  0  0  0  0  0  0  0  0  0
   10.0437   14.6733    4.0477 H   0  0  0  0  0  0  0  0  0  0  0  0
   12.4346   11.4980    2.3446 H   0  0  0  0  0  0  0  0  0  0  0  0
   16.5112   12.6747    2.4645 H   0  0  0  0  0  0  0  0  0  0  0  0
   15.3418   11.5492    1.6948 H   0  0  0  0  0  0  0  0  0  0  0  0
   15.0205   13.3165    1.6948 H   0  0  0  0  0  0  0  0  0  0  0  0
    8.9429   13.0162    2.7077 H   0  0  0  0  0  0  0  0  0  0  0  0
   10.7996   10.9441    1.4044 H   0  0  0  0  0  0  0  0  0  0  0  0
  2  1  1  0
  4  3  2  0
  4  2  1  0
  5  4  1  0
  6  5  2  0
  7  6  1  0
  8  3  1  0
  8  7  2  0
  9  7  1  0
 10  9  2  0
 11  9  1  0
 12  8  1  0
 13  3  1  0
 15 14  1  0
 15 13  1  0
 16  1  1  0
 17 16  1  0
 18 17  1  0
 19 18  2  0
 20 19  1  0
 21 20  2  0
 22 21  1  0
 23 22  2  0
 23 18  1  0
 24 23  1  0
 25 24  1  0
 26 21  1  0
 27 26  2  0
 28 27  1  0
 29 28  2  0
 30 28  1  0
  1 31  1  0
  1 32  1  0
  5 33  1  0
  6 34  1  0
 11 35  1  0
 11 36  1  0
 11 37  1  0
 12 38  1  0
 13 39  1  0
 13 40  1  0
 14 41  1  0
 14 42  1  0
 14 43  1  0
 15 44  1  0
 15 45  1  0
 16 46  1  0
 16 47  1  0
 19 48  1  0
 20 49  1  0
 22 50  1  0
 25 51  1  0
 25 52  1  0
 25 53  1  0
 26 54  1  0
 27 55  1  0
M  CHG  1  30  -1
M  END
$$$$
=
     RDKit          3D

 34 34  0  0  0  0  0  0  0  0999 V2000
   27.4990   23.9360   14.2200 S   0  0  0  0  0  6  0  0  0  0  0  0
   28.7760   23.2570   14.1770 O   0  0  0  0  0  0  0  0  0  0  0  0
   26.3660   23.4020   14.9380 O   0  0  0  0  0  0  0  0  0  0  0  0
   27.8670   25.3880   15.0520 C   0  0  0  0  0  0  0  0  0  0  0  0
   27.9260   25.5520   16.4380 C   0  0  0  0  0  0  0  0  0  0  0  0
   28.2480   26.8050   16.7840 N   0  0  0  0  0  0  0  0  0  0  0  0
   28.3810   27.4470   15.5980 N   0  0  0  0  0  0  0  0  0  0  0  0
   28.1740   26.6220   14.5240 C   0  0  0  0  0  0  0  0  0  0  0  0
   28.7150   28.8820   15.5470 C   0  0  0  0  0  0  0  0  0  0  0  0
   27.8700   29.6440   16.5850 C   0  0  0  0  0  0  0  0  0  0  0  0
   30.2120   29.0730   15.8580 C   0  0  0  0  0  0  0  0  0  0  0  0
   28.4340   29.4950   14.1580 C   0  0  0  0  0  0  0  0  0  0  0  0
   27.0720   24.3530   12.6430 N   0  0  0  0  0  0  0  0  0  0  0  0
   26.1620   23.3700   11.9300 C   0  0  1  0  0  0  0  0  0  0  0  0
   25.2450   24.1550   11.0070 C   0  0  0  0  0  0  0  0  0  0  0  0
   26.4920   21.3340   10.7600 O   0  0  0  0  0  1  0  0  0  0  0  0
   27.0510   22.4410   11.0500 C   0  0  0  0  0  0  0  0  0  0  0  0
   28.1990   22.8780   10.7640 O   0  0  0  0  0  0  0  0  0  0  0  0
   27.7308   24.7461   17.1608 H   0  0  0  0  0  0  0  0  0  0  0  0
   28.2396   26.8902   13.4592 H   0  0  0  0  0  0  0  0  0  0  0  0
   28.1879   29.3573   17.5983 H   0  0  0  0  0  0  0  0  0  0  0  0
   28.0108   30.7264   16.4490 H   0  0  0  0  0  0  0  0  0  0  0  0
   26.8078   29.3925   16.4490 H   0  0  0  0  0  0  0  0  0  0  0  0
   30.3606   29.0920   16.9478 H   0  0  0  0  0  0  0  0  0  0  0  0
   30.7857   28.2408   15.4241 H   0  0  0  0  0  0  0  0  0  0  0  0
   30.5584   30.0226   15.4241 H   0  0  0  0  0  0  0  0  0  0  0  0
   27.9785   30.4887   14.2811 H   0  0  0  0  0  0  0  0  0  0  0  0
   29.3781   29.5908   13.6017 H   0  0  0  0  0  0  0  0  0  0  0  0
   27.7452   28.8423   13.6017 H   0  0  0  0  0  0  0  0  0  0  0  0
   26.5922   25.2639   12.6747 H   0  0  0  0  0  0  0  0  0  0  0  0
   25.5774   22.7840   12.6544 H   0  0  0  0  0  0  0  0  0  0  0  0
   24.5452   24.7541   11.6081 H   0  0  0  0  0  0  0  0  0  0  0  0
   25.8471   24.8219   10.3724 H   0  0  0  0  0  0  0  0  0  0  0  0
   24.6789   23.4573   10.3724 H   0  0  0  0  0  0  0  0  0  0  0  0
  2  1  2  0
  3  1  2  0
  4  1  1  0
  5  4  1  0
  6  5  2  0
  7  6  1  0
  8  4  2  0
  8  7  1  0
  9  7  1  0
 10  9  1  0
 11  9  1  0
 12  9  1  0
 13  1  1  0
 14 13  1  0
 15 14  1  0
 17 16  1  0
 17 14  1  0
 18 17  2  0
  5 19  1  0
  8 20  1  0
 10 21  1  0
 10 22  1  0
 10 23  1  0
 11 24  1  0
 11 25  1  0
 11 26  1  0
 12 27  1  0
 12 28  1  0
 12 29  1  0
 13 30  1  0
 14 31  1  1
 15 32  1  0
 15 33  1  0
 15 34  1  0
M  CHG  1  16  -1
M  END
$$$$
=
     RDKit          3D

 29 30  0  0  0  0  0  0  0  0999 V2000
   17.4220   16.5800    5.0170 C   0  0  0  0  0  0  0  0  0  0  0  0
   16.9770   16.3920    6.3200 C   0  0  0  0  0  0  0  0  0  0  0  0
   15.8730   15.5050    6.2990 C   0  0  0  0  0  0  0  0  0  0  0  0
   15.6780   15.1680    4.9800 C   0  0  0  0  0  0  0  0  0  0  0  0
   16.6050   15.8030    4.2110 O   0  0  0  0  0  0  0  0  0  0  0  0
   14.7330   14.3130    4.2650 C   0  0  0  0  0  0  0  0  0  0  0  0
   15.1860   13.2630    3.4460 C   0  0  0  0  0  0  0  0  0  0  0  0
   14.2930   12.4380    2.7570 C   0  0  0  0  0  0  0  0  0  0  0  0
   12.9220   12.6480    2.8750 C   0  0  0  0  0  0  0  0  0  0  0  0
   12.4560   13.6890    3.6880 C   0  0  0  0  0  0  0  0  0  0  0  0
   13.3510   14.5190    4.3800 C   0  0  0  0  0  0  0  0  0  0  0  0
   11.0110   13.9120    3.8140 N   0  0  0  0  0  4  0  0  0  0  0  0
   10.2590   13.2720    3.0620 O   0  0  0  0  0  0  0  0  0  0  0  0
   10.6170   14.7250    4.6630 O   0  0  0  0  0  1  0  0  0  0  0  0
   19.7000   16.9060    4.0910 C   0  0  0  0  0  0  0  0  0  0  0  0
   18.4830   17.3470    4.4570 C   0  0  0  0  0  0  0  0  0  0  0  0
   21.2340   15.3400    4.9590 O   0  0  0  0  0  1  0  0  0  0  0  0
   20.2150   15.4960    4.2170 C   0  0  0  0  0  0  0  0  0  0  0  0
   19.6980   14.6370    3.4360 O   0  0  0  0  0  0  0  0  0  0  0  0
   20.6510   17.9020    3.4620 C   0  0  0  0  0  0  0  0  0  0  0  0
   21.3810   18.5900    4.2300 O   0  0  0  0  0  0  0  0  0  0  0  0
   20.5580   18.0260    2.1950 O   0  0  0  0  0  1  0  0  0  0  0  0
   17.4103   16.8553    7.2187 H   0  0  0  0  0  0  0  0  0  0  0  0
   15.2892   15.1560    7.1635 H   0  0  0  0  0  0  0  0  0  0  0  0
   16.2672   13.0874    3.3456 H   0  0  0  0  0  0  0  0  0  0  0  0
   14.6729   11.6238    2.1223 H   0  0  0  0  0  0  0  0  0  0  0  0
   12.2123   12.0034    2.3356 H   0  0  0  0  0  0  0  0  0  0  0  0
   12.9678   15.3324    5.0136 H   0  0  0  0  0  0  0  0  0  0  0  0
   18.2856   18.4187    4.3071 H   0  0  0  0  0  0  0  0  0  0  0  0
  2  1  2  0
  3  2  1  0
  4  3  2  0
  5  4  1  0
  5  1  1  0
  6  4  1  0
  7  6  2  0
  8  7  1  0
  9  8  2  0
 10  9  1  0
 11 10  2  0
 11  6  1  0
 12 10  1  0
 13 12  2  0
 14 12  1  0
 16 15  2  3
 16  1  1  0
 18 17  1  0
 18 15  1  0
 19 18  2  0
 20 15  1  0
 21 20  2  0
 22 20  1  0
  2 23  1  0
  3 24  1  0
  7 25  1  0
  8 26  1  0
  9 27  1  0
 11 28  1  0
 16 29  1  0
M  CHG  4  12   1  14  -1  17  -1  22  -1
M  END
$$$$
=
     RDKit          3D

 27 28  0  0  0  0  0  0  0  0999 V2000
   15.0590   15.0940    4.2360 C   0  0  0  0  0  0  0  0  0  0  0  0
   13.6580   15.0180    4.2830 C   0  0  0  0  0  0  0  0  0  0  0  0
   12.9560   13.9000    3.7910 C   0  0  0  0  0  0  0  0  0  0  0  0
   13.6720   12.8370    3.2050 C   0  0  0  0  0  0  0  0  0  0  0  0
   15.0590   12.9550    3.1410 C   0  0  0  0  0  0  0  0  0  0  0  0
   15.7710   14.0450    3.6290 C   0  0  0  0  0  0  0  0  0  0  0  0
   17.1390   13.7620    3.3620 C   0  0  0  0  0  0  0  0  0  0  0  0
   17.1680   12.5370    2.7390 C   0  0  0  0  0  0  0  0  0  0  0  0
   15.9120   12.0380    2.6020 O   0  0  0  0  0  0  0  0  0  0  0  0
   11.4450   13.8390    3.8930 C   0  0  0  0  0  0  0  0  0  0  0  0
   10.8560   12.9250    3.2360 O   0  0  0  0  0  0  0  0  0  0  0  0
   10.8830   14.7040    4.6360 O   0  0  0  0  0  1  0  0  0  0  0  0
   15.7430   16.1870    4.7110 O   0  0  0  0  0  0  0  0  0  0  0  0
   16.2240   15.4150    6.9310 C   0  0  0  0  0  0  0  0  0  0  0  0
   16.8220   15.8360    5.5920 C   0  0  0  0  0  0  0  0  0  0  0  0
   17.6950   17.0750    5.7610 C   0  0  0  0  0  0  0  0  0  0  0  0
   13.0920   15.8556    4.7165 H   0  0  0  0  0  0  0  0  0  0  0  0
   13.1558   11.9482    2.8131 H   0  0  0  0  0  0  0  0  0  0  0  0
   18.0030   14.3977    3.6058 H   0  0  0  0  0  0  0  0  0  0  0  0
   18.0829   12.0303    2.3981 H   0  0  0  0  0  0  0  0  0  0  0  0
   16.8245   15.8378    7.7499 H   0  0  0  0  0  0  0  0  0  0  0  0
   15.1911   15.7862    7.0042 H   0  0  0  0  0  0  0  0  0  0  0  0
   16.2252   14.3174    7.0042 H   0  0  0  0  0  0  0  0  0  0  0  0
   17.4271   15.0080    5.1942 H   0  0  0  0  0  0  0  0  0  0  0  0
   17.8387   17.2789    6.8323 H   0  0  0  0  0  0  0  0  0  0  0  0
   18.6722   16.9025    5.2863 H   0  0  0  0  0  0  0  0  0  0  0  0
   17.2038   17.9372    5.2863 H   0  0  0  0  0  0  0  0  0  0  0  0
  2  1  2  0
  3  2  1  0
  4  3  2  0
  5  4  1  0
  6  5  2  0
  6  1  1  0
  7  6  1  0
  8  7  2  0
  9  5  1  0
  9  8  1  0
 10  3  1  0
 11 10  2  0
 12 10  1  0
 13  1  1  0
 15 13  1  0
 15 14  1  0
 16 15  1  0
  2 17  1  0
  4 18  1  0
  7 19  1  0
  8 20  1  0
 14 21  1  0
 14 22  1  0
 14 23  1  0
 15 24  1  0
 16 25  1  0
 16 26  1  0
 16 27  1  0
M  CHG  1  12  -1
M  END
$$$$
=
     RDKit          3D

 59 62  0  0  0  0  0  0  0  0999 V2000
   11.3590   13.3890    3.6120 C   0  0  0  0  0  0  0  0  0  0  0  0
   11.7390   12.4240    2.6530 C   0  0  0  0  0  0  0  0  0  0  0  0
   10.7990   11.5830    2.0300 C   0  0  0  0  0  0  0  0  0  0  0  0
    9.4580   11.6990    2.3580 C   0  0  0  0  0  0  0  0  0  0  0  0
    9.0840   12.6340    3.3000 C   0  0  0  0  0  0  0  0  0  0  0  0
   10.0090   13.4480    3.9490 C   0  0  0  0  0  0  0  0  0  0  0  0
    9.2790   14.2650    4.9700 C   0  0  1  0  0  0  0  0  0  0  0  0
    7.8600   14.1100    4.4020 C   0  0  1  0  0  0  0  0  0  0  0  0
    7.7750   12.8530    3.6660 O   0  0  0  0  0  0  0  0  0  0  0  0
    6.6700   14.2590    5.3300 C   0  0  0  0  0  0  0  0  0  0  0  0
    6.3240   15.5180    5.8560 C   0  0  0  0  0  0  0  0  0  0  0  0
    5.2240   15.6640    6.7080 C   0  0  0  0  0  0  0  0  0  0  0  0
    4.4850   14.5450    7.0550 C   0  0  0  0  0  0  0  0  0  0  0  0
    4.8280   13.2900    6.5630 C   0  0  0  0  0  0  0  0  0  0  0  0
    5.8960   13.1440    5.6870 C   0  0  0  0  0  0  0  0  0  0  0  0
    4.1080   12.2050    6.9840 O   0  0  0  0  0  0  0  0  0  0  0  0
    3.4200   14.6710    7.9040 O   0  0  0  0  0  0  0  0  0  0  0  0
    9.4480   13.7130    6.3850 C   0  0  0  0  0  0  0  0  0  0  0  0
    9.1340   12.5040    6.5890 O   0  0  0  0  0  0  0  0  0  0  0  0
    9.8820   14.5570    7.2240 O   0  0  0  0  0  1  0  0  0  0  0  0
   13.5910   14.4440    3.7640 C   0  0  0  0  0  0  0  0  0  0  0  0
   12.3490   14.2780    4.2450 C   0  0  0  0  0  0  0  0  0  0  0  0
   14.4140   16.5380    4.6110 O   0  0  0  0  0  0  0  0  0  0  0  0
   14.5700   15.3450    4.4120 C   0  0  0  0  0  0  0  0  0  0  0  0
   15.6360   14.5870    4.7650 O   0  0  0  0  0  0  0  0  0  0  0  0
   16.9530   15.1700    4.5270 C   0  0  2  0  0  0  0  0  0  0  0  0
   17.7200   14.2260    3.5590 C   0  0  0  0  0  0  0  0  0  0  0  0
   18.9000   14.5580    3.2420 O   0  0  0  0  0  0  0  0  0  0  0  0
   17.0690   13.2080    3.1760 O   0  0  0  0  0  1  0  0  0  0  0  0
   17.6530   15.3920    5.8740 C   0  0  0  0  0  0  0  0  0  0  0  0
   18.8570   16.3010    5.7600 C   0  0  0  0  0  0  0  0  0  0  0  0
   18.7290   17.5850    5.2160 C   0  0  0  0  0  0  0  0  0  0  0  0
   19.8360   18.4300    5.1250 C   0  0  0  0  0  0  0  0  0  0  0  0
   21.0780   17.9960    5.5880 C   0  0  0  0  0  0  0  0  0  0  0  0
   21.2130   16.7250    6.1450 C   0  0  0  0  0  0  0  0  0  0  0  0
   20.1080   15.8790    6.2360 C   0  0  0  0  0  0  0  0  0  0  0  0
   22.4290   16.3130    6.6160 O   0  0  0  0  0  0  0  0  0  0  0  0
   22.1670   18.8230    5.5090 O   0  0  0  0  0  0  0  0  0  0  0  0
    8.5300   10.9020    1.7600 O   0  0  0  0  0  0  0  0  0  0  0  0
   12.8016   12.3272    2.3854 H   0  0  0  0  0  0  0  0  0  0  0  0
   11.1261   10.8393    1.2884 H   0  0  0  0  0  0  0  0  0  0  0  0
    9.6149   15.3044    5.0995 H   0  0  0  0  0  0  0  0  0  0  0  0
    7.7519   14.9981    3.7620 H   0  0  0  0  0  0  0  0  0  0  0  0
    6.9271   16.3996    5.5934 H   0  0  0  0  0  0  0  0  0  0  0  0
    4.9493   16.6553    7.0976 H   0  0  0  0  0  0  0  0  0  0  0  0
    6.1354   12.1535    5.2727 H   0  0  0  0  0  0  0  0  0  0  0  0
    4.3328   11.3012    6.6482 H   0  0  0  0  0  0  0  0  0  0  0  0
    2.8894   13.8735    8.1543 H   0  0  0  0  0  0  0  0  0  0  0  0
   13.8905   13.8933    2.8601 H   0  0  0  0  0  0  0  0  0  0  0  0
   12.0576   14.8295    5.1510 H   0  0  0  0  0  0  0  0  0  0  0  0
   16.8985   16.1584    4.0473 H   0  0  0  0  0  0  0  0  0  0  0  0
   16.9350   15.8441    6.5741 H   0  0  0  0  0  0  0  0  0  0  0  0
   18.0063   14.4136    6.2316 H   0  0  0  0  0  0  0  0  0  0  0  0
   17.7481   17.9304    4.8575 H   0  0  0  0  0  0  0  0  0  0  0  0
   19.7294   19.4346    4.6897 H   0  0  0  0  0  0  0  0  0  0  0  0
   20.2172   14.8792    6.6816 H   0  0  0  0  0  0  0  0  0  0  0  0
   22.5267   15.4109    7.0118 H   0  0  0  0  0  0  0  0  0  0  0  0
   23.0481   18.5140    5.8379 H   0  0  0  0  0  0  0  0  0  0  0  0
    7.5735   10.9905    1.9994 H   0  0  0  0  0  0  0  0  0  0  0  0
  2  1  2  0
  3  2  1  0
  4  3  2  0
  5  4  1  0
  6  5  2  0
  6  1  1  0
  7  6  1  0
  8  7  1  0
  9  8  1  0
  9  5  1  0
 10  8  1  0
 11 10  2  0
 12 11  1  0
 13 12  2  0
 14 13  1  0
 15 14  2  0
 15 10  1  0
 16 14  1  0
 17 13  1  0
 18  7  1  0
 19 18  2  0
 20 18  1  0
 22 21  2  0
 22  1  1  0
 24 21  1  0
 24 23  2  0
 25 24  1  0
 26 25  1  0
 27 26  1  0
 28 27  2  0
 29 27  1  0
 30 26  1  0
 31 30  1  0
 32 31  2  0
 33 32  1  0
 34 33  2  0
 35 34  1  0
 36 31  1  0
 36 35  2  0
 37 35  1  0
 38 34  1  0
 39  4  1  0
  2 40  1  0
  3 41  1  0
  7 42  1  1
  8 43  1  6
 11 44  1  0
 12 45  1  0
 15 46  1  0
 16 47  1  0
 17 48  1  0
 21 49  1  0
 22 50  1  0
 26 51  1  6
 30 52  1  0
 30 53  1  0
 32 54  1  0
 33 55  1  0
 36 56  1  0
 37 57  1  0
 38 58  1  0
 39 59  1  0
M  CHG  2  20  -1  29  -1
M  END
$$$$
=
     RDKit          3D

 19 19  0  0  0  0  0  0  0  0999 V2000
   21.4600   16.8170    5.5880 C   0  0  0  0  0  0  0  0  0  0  0  0
   20.8750   17.6000    4.6110 C   0  0  0  0  0  0  0  0  0  0  0  0
   19.7800   16.9580    3.9670 C   0  0  0  0  0  0  0  0  0  0  0  0
   19.5720   15.6760    4.4270 C   0  0  0  0  0  0  0  0  0  0  0  0
   20.6770   15.2940    5.6830 S   0  0  0  0  0  0  0  0  0  0  0  0
   18.4780   14.6420    3.9160 C   0  0  0  0  0  0  0  0  0  0  0  0
   18.8990   13.6640    3.2220 O   0  0  0  0  0  0  0  0  0  0  0  0
   17.2690   14.8450    4.2490 O   0  0  0  0  0  1  0  0  0  0  0  0
   23.3230   18.1490    6.0850 C   0  0  0  0  0  0  0  0  0  0  0  0
   22.4870   17.0520    6.4170 O   0  0  0  0  0  0  0  0  0  0  0  0
   19.0960   17.5440    2.9570 O   0  0  0  0  0  0  0  0  0  0  0  0
   19.8300   17.4910    1.7360 C   0  0  0  0  0  0  0  0  0  0  0  0
   21.2196   18.6134    4.3575 H   0  0  0  0  0  0  0  0  0  0  0  0
   23.6862   18.6256    7.0075 H   0  0  0  0  0  0  0  0  0  0  0  0
   24.1799   17.7916    5.4950 H   0  0  0  0  0  0  0  0  0  0  0  0
   22.7512   18.8804    5.4950 H   0  0  0  0  0  0  0  0  0  0  0  0
   20.9047   17.4134    1.9573 H   0  0  0  0  0  0  0  0  0  0  0  0
   19.5111   16.6135    1.1543 H   0  0  0  0  0  0  0  0  0  0  0  0
   19.6405   18.4052    1.1543 H   0  0  0  0  0  0  0  0  0  0  0  0
  2  1  2  0
  3  2  1  0
  4  3  2  0
  5  4  1  0
  5  1  1  0
  6  4  1  0
  7  6  2  0
  8  6  1  0
 10  1  1  0
 10  9  1  0
 11  3  1  0
 12 11  1  0
  2 13  1  0
  9 14  1  0
  9 15  1  0
  9 16  1  0
 12 17  1  0
 12 18  1  0
 12 19  1  0
M  CHG  1   8  -1
M  END
$$$$
=
     RDKit          3D

 45 46  0  0  0  0  0  0  0  0999 V2000
   17.7790   15.3650    4.5060 C   0  0  1  0  0  0  0  0  0  0  0  0
   17.0400   15.3190    5.8740 C   0  0  0  0  0  0  0  0  0  0  0  0
   16.8590   16.7810    6.2700 C   0  0  0  0  0  0  0  0  0  0  0  0
   18.1370   17.4220    5.7680 C   0  0  0  0  0  0  0  0  0  0  0  0
   18.3840   16.7430    4.5180 N   0  0  0  0  0  0  0  0  0  0  0  0
   19.3240   17.1310    3.5940 C   0  0  0  0  0  0  0  0  0  0  0  0
   19.5490   16.5420    2.5450 O   0  0  0  0  0  0  0  0  0  0  0  0
   18.8570   14.2140    4.6400 C   0  0  0  0  0  0  0  0  0  0  0  0
   19.0310   13.5100    3.5970 O   0  0  0  0  0  0  0  0  0  0  0  0
   19.4760   14.1490    5.7410 O   0  0  0  0  0  1  0  0  0  0  0  0
   16.8890   15.2150    3.2450 C   0  0  0  0  0  0  0  0  0  0  0  0
   13.3340   13.9410    3.8490 C   0  0  0  0  0  0  0  0  0  0  0  0
   13.4480   12.6080    3.4350 C   0  0  0  0  0  0  0  0  0  0  0  0
   14.6670   12.1220    2.9650 C   0  0  0  0  0  0  0  0  0  0  0  0
   15.7760   12.9670    2.9080 C   0  0  0  0  0  0  0  0  0  0  0  0
   15.6780   14.3050    3.3160 C   0  0  0  0  0  0  0  0  0  0  0  0
   14.4470   14.7840    3.7880 C   0  0  0  0  0  0  0  0  0  0  0  0
   11.0270   14.7810    4.6910 N   0  0  0  0  0  0  0  0  0  0  0  0
   12.0770   14.4250    4.3400 C   0  0  0  0  0  0  0  0  0  0  0  0
   19.9360   18.2900    3.9660 O   0  0  0  0  0  0  0  0  0  0  0  0
   21.2200   18.2630    4.6340 C   0  0  0  0  0  0  0  0  0  0  0  0
   20.9730   18.9840    5.9690 C   0  0  0  0  0  0  0  0  0  0  0  0
   22.2760   19.0470    3.8480 C   0  0  0  0  0  0  0  0  0  0  0  0
   21.6690   16.8280    4.9330 C   0  0  0  0  0  0  0  0  0  0  0  0
   16.0641   14.8222    5.7704 H   0  0  0  0  0  0  0  0  0  0  0  0
   17.6020   14.7511    6.6301 H   0  0  0  0  0  0  0  0  0  0  0  0
   15.9767   17.2185    5.7800 H   0  0  0  0  0  0  0  0  0  0  0  0
   16.6927   16.9242    7.3479 H   0  0  0  0  0  0  0  0  0  0  0  0
   17.9995   18.5017    5.6089 H   0  0  0  0  0  0  0  0  0  0  0  0
   18.9714   17.3296    6.4788 H   0  0  0  0  0  0  0  0  0  0  0  0
   16.5250   16.2196    2.9835 H   0  0  0  0  0  0  0  0  0  0  0  0
   17.5465   14.7299    2.5085 H   0  0  0  0  0  0  0  0  0  0  0  0
   12.5732   11.9427    3.4808 H   0  0  0  0  0  0  0  0  0  0  0  0
   14.7545   11.0748    2.6398 H   0  0  0  0  0  0  0  0  0  0  0  0
   16.7371   12.5795    2.5392 H   0  0  0  0  0  0  0  0  0  0  0  0
   14.3570   15.8312    4.1126 H   0  0  0  0  0  0  0  0  0  0  0  0
   21.2060   18.3039    6.8016 H   0  0  0  0  0  0  0  0  0  0  0  0
   21.6178   19.8731    6.0303 H   0  0  0  0  0  0  0  0  0  0  0  0
   19.9185   19.2909    6.0303 H   0  0  0  0  0  0  0  0  0  0  0  0
   22.9559   19.5518    4.5501 H   0  0  0  0  0  0  0  0  0  0  0  0
   22.8505   18.3549    3.2148 H   0  0  0  0  0  0  0  0  0  0  0  0
   21.7797   19.7972    3.2148 H   0  0  0  0  0  0  0  0  0  0  0  0
   21.7160   16.6778    6.0217 H   0  0  0  0  0  0  0  0  0  0  0  0
   20.9494   16.1201    4.4959 H   0  0  0  0  0  0  0  0  0  0  0  0
   22.6638   16.6565    4.4959 H   0  0  0  0  0  0  0  0  0  0  0  0
  2  1  1  0
  3  2  1  0
  4  3  1  0
  5  1  1  0
  5  4  1  0
  6  5  1  0
  7  6  2  0
  1  8  1  1
  9  8  2  0
 10  8  1  0
 11  1  1  0
 13 12  2  0
 14 13  1  0
 15 14  2  0
 16 15  1  0
 16 11  1  0
 17 16  2  0
 17 12  1  0
 19 18  3  0
 19 12  1  0
 20  6  1  0
 21 20  1  0
 22 21  1  0
 23 21  1  0
 24 21  1  0
  2 25  1  0
  2 26  1  0
  3 27  1  0
  3 28  1  0
  4 29  1  0
  4 30  1  0
 11 31  1  0
 11 32  1  0
 13 33  1  0
 14 34  1  0
 15 35  1  0
 17 36  1  0
 22 37  1  0
 22 38  1  0
 22 39  1  0
 23 40  1  0
 23 41  1  0
 23 42  1  0
 24 43  1  0
 24 44  1  0
 24 45  1  0
M  CHG  1  10  -1
M  END
$$$$
=
     RDKit          3D

 23 23  0  0  0  0  0  0  0  0999 V2000
   16.4450   15.6340    4.7160 C   0  0  0  0  0  0  0  0  0  0  0  0
   16.5580   16.5410    5.6260 N   0  0  0  0  0  0  0  0  0  0  0  0
   17.8350   16.9950    5.8480 C   0  0  0  0  0  0  0  0  0  0  0  0
   18.9200   16.6560    5.1360 C   0  0  0  0  0  0  0  0  0  0  0  0
   18.7050   15.7310    4.0010 C   0  0  0  0  0  0  0  0  0  0  0  0
   19.5330   15.5280    3.1200 O   0  0  0  0  0  0  0  0  0  0  0  0
   17.4630   15.1710    3.9490 N   0  0  0  0  0  0  0  0  0  0  0  0
   14.9250   14.8910    4.3120 S   0  0  0  0  0  0  0  0  0  0  0  0
   14.7180   12.3520    3.2320 C   0  0  0  0  0  0  0  0  0  0  0  0
   15.4770   13.6620    3.0930 C   0  0  0  0  0  0  0  0  0  0  0  0
   20.3110   17.1220    5.4300 C   0  0  0  0  0  0  0  0  0  0  0  0
   21.1940   16.0100    6.0020 C   0  0  0  0  0  0  0  0  0  0  0  0
   21.0620   15.7480    7.2310 O   0  0  0  0  0  0  0  0  0  0  0  0
   22.0030   15.5110    5.1670 O   0  0  0  0  0  1  0  0  0  0  0  0
   17.9806   17.6974    6.6819 H   0  0  0  0  0  0  0  0  0  0  0  0
   17.2942   14.3786    3.3130 H   0  0  0  0  0  0  0  0  0  0  0  0
   14.5825   12.1181    4.2983 H   0  0  0  0  0  0  0  0  0  0  0  0
   13.7341   12.4453    2.7491 H   0  0  0  0  0  0  0  0  0  0  0  0
   15.2883   11.5448    2.7491 H   0  0  0  0  0  0  0  0  0  0  0  0
   16.5499   13.4698    3.2412 H   0  0  0  0  0  0  0  0  0  0  0  0
   15.2839   14.0652    2.0879 H   0  0  0  0  0  0  0  0  0  0  0  0
   20.7648   17.4880    4.4972 H   0  0  0  0  0  0  0  0  0  0  0  0
   20.2437   17.9175    6.1868 H   0  0  0  0  0  0  0  0  0  0  0  0
  2  1  2  0
  3  2  1  0
  4  3  2  0
  5  4  1  0
  6  5  2  0
  7  5  1  0
  7  1  1  0
  8  1  1  0
 10  9  1  0
 10  8  1  0
 11  4  1  0
 12 11  1  0
 13 12  2  0
 14 12  1  0
  3 15  1  0
  7 16  1  0
  9 17  1  0
  9 18  1  0
  9 19  1  0
 10 20  1  0
 10 21  1  0
 11 22  1  0
 11 23  1  0
M  CHG  1  14  -1
M  END
$$$$
=
     RDKit          3D

 39 39  0  0  0  0  0  0  0  0999 V2000
   27.7130   24.8550   12.2250 C   0  0  1  0  0  0  0  0  0  0  0  0
   26.4230   25.2030   13.0240 C   0  0  0  0  0  0  0  0  0  0  0  0
   26.3110   26.6750   13.4550 C   0  0  0  0  0  0  0  0  0  0  0  0
   27.6670   27.3200   13.7430 C   0  0  1  0  0  0  0  0  0  0  0  0
   28.5760   27.2530   12.5050 C   0  0  0  0  0  0  0  0  0  0  0  0
   28.2080   26.1290   11.5210 C   0  0  0  0  0  0  0  0  0  0  0  0
   28.7210   24.3030   13.1810 N   0  0  0  0  0  0  0  0  0  0  0  0
   28.3840   23.7010   14.3550 C   0  0  0  0  0  0  0  0  0  0  0  0
   27.3190   23.1840   14.6490 O   0  0  0  0  0  0  0  0  0  0  0  0
   29.4620   23.7710   15.1820 O   0  0  0  0  0  0  0  0  0  0  0  0
   29.6080   24.8700   16.1070 C   0  0  0  0  0  0  0  0  0  0  0  0
   30.4410   26.0070   15.5040 C   0  0  0  0  0  0  0  0  0  0  0  0
   30.3850   24.2770   17.2940 C   0  0  0  0  0  0  0  0  0  0  0  0
   28.2480   25.3620   16.6170 C   0  0  0  0  0  0  0  0  0  0  0  0
   28.1620   23.1220   10.6120 O   0  0  0  0  0  1  0  0  0  0  0  0
   27.2200   23.7200   11.2290 C   0  0  0  0  0  0  0  0  0  0  0  0
   25.9760   23.5040   11.1580 O   0  0  0  0  0  0  0  0  0  0  0  0
   27.5850   28.7720   14.2690 C   0  0  0  0  0  0  0  0  0  0  0  0
   28.2590   29.6250   13.6180 O   0  0  0  0  0  0  0  0  0  0  0  0
   26.8890   28.9610   15.3090 O   0  0  0  0  0  1  0  0  0  0  0  0
   25.5543   24.9638   12.3931 H   0  0  0  0  0  0  0  0  0  0  0  0
   26.4620   24.6105   13.9500 H   0  0  0  0  0  0  0  0  0  0  0  0
   25.8189   27.2393   12.6492 H   0  0  0  0  0  0  0  0  0  0  0  0
   25.7306   26.7002   14.3891 H   0  0  0  0  0  0  0  0  0  0  0  0
   28.1032   26.7276   14.5608 H   0  0  0  0  0  0  0  0  0  0  0  0
   28.5090   28.2139   11.9738 H   0  0  0  0  0  0  0  0  0  0  0  0
   29.5928   27.0402   12.8668 H   0  0  0  0  0  0  0  0  0  0  0  0
   29.0986   25.8778   10.9263 H   0  0  0  0  0  0  0  0  0  0  0  0
   27.3855   26.4984   10.8909 H   0  0  0  0  0  0  0  0  0  0  0  0
   29.7193   24.3819   12.9399 H   0  0  0  0  0  0  0  0  0  0  0  0
   30.8813   26.6080   16.3133 H   0  0  0  0  0  0  0  0  0  0  0  0
   31.2442   25.5836   14.8830 H   0  0  0  0  0  0  0  0  0  0  0  0
   29.7952   26.6452   14.8830 H   0  0  0  0  0  0  0  0  0  0  0  0
   29.9339   24.6213   18.2363 H   0  0  0  0  0  0  0  0  0  0  0  0
   30.3436   23.1788   17.2474 H   0  0  0  0  0  0  0  0  0  0  0  0
   31.4334   24.6067   17.2474 H   0  0  0  0  0  0  0  0  0  0  0  0
   28.2472   25.3623   17.7170 H   0  0  0  0  0  0  0  0  0  0  0  0
   28.0662   26.3829   16.2499 H   0  0  0  0  0  0  0  0  0  0  0  0
   27.4551   24.6937   16.2499 H   0  0  0  0  0  0  0  0  0  0  0  0
  2  1  1  0
  3  2  1  0
  4  3  1  0
  5  4  1  0
  6  1  1  0
  6  5  1  0
  7  1  1  0
  8  7  1  0
  9  8  2  0
 10  8  1  0
 11 10  1  0
 12 11  1  0
 13 11  1  0
 14 11  1  0
 16 15  1  0
  1 16  1  6
 17 16  2  0
 18  4  1  0
 19 18  2  0
 20 18  1  0
  2 21  1  0
  2 22  1  0
  3 23  1  0
  3 24  1  0
  4 25  1  1
  5 26  1  0
  5 27  1  0
  6 28  1  0
  6 29  1  0
  7 30  1  0
 12 31  1  0
 12 32  1  0
 12 33  1  0
 13 34  1  0
 13 35  1  0
 13 36  1  0
 14 37  1  0
 14 38  1  0
 14 39  1  0
M  CHG  2  15  -1  20  -1
M  END
$$$$
=
     RDKit          3D

 28 28  0  0  0  0  0  0  0  0999 V2000
   19.2610   16.1330    5.2690 N   0  0  0  0  0  0  0  0  0  0  0  0
   18.8960   15.4010    4.2880 C   0  0  0  0  0  0  0  0  0  0  0  0
   20.2280   18.3890    5.4460 C   0  0  0  0  0  0  0  0  0  0  0  0
   20.5260   16.9020    5.3050 C   0  0  1  0  0  0  0  0  0  0  0  0
   21.5310   16.4300    6.3910 C   0  0  0  0  0  0  0  0  0  0  0  0
   21.1100   15.4690    7.1090 O   0  0  0  0  0  0  0  0  0  0  0  0
   22.6320   17.0420    6.4380 O   0  0  0  0  0  1  0  0  0  0  0  0
   19.5220   15.2010    3.1220 O   0  0  0  0  0  0  0  0  0  0  0  0
   17.7660   14.6550    4.3110 O   0  0  0  0  0  0  0  0  0  0  0  0
   16.5470   15.4040    4.2960 C   0  0  0  0  0  0  0  0  0  0  0  0
   15.3910   14.5130    3.8930 C   0  0  0  0  0  0  0  0  0  0  0  0
   14.1040   14.7660    4.3890 C   0  0  0  0  0  0  0  0  0  0  0  0
   13.0370   13.9280    4.0580 C   0  0  0  0  0  0  0  0  0  0  0  0
   13.2460   12.8240    3.2350 C   0  0  0  0  0  0  0  0  0  0  0  0
   14.5230   12.5540    2.7450 C   0  0  0  0  0  0  0  0  0  0  0  0
   15.5900   13.3910    3.0770 C   0  0  0  0  0  0  0  0  0  0  0  0
   20.1751   18.6528    6.5126 H   0  0  0  0  0  0  0  0  0  0  0  0
   21.0275   18.9705    4.9636 H   0  0  0  0  0  0  0  0  0  0  0  0
   19.2662   18.6176    4.9636 H   0  0  0  0  0  0  0  0  0  0  0  0
   21.0294   16.7107    4.3458 H   0  0  0  0  0  0  0  0  0  0  0  0
   19.1231   14.6016    2.4425 H   0  0  0  0  0  0  0  0  0  0  0  0
   16.3586   15.8117    5.3001 H   0  0  0  0  0  0  0  0  0  0  0  0
   16.6385   16.2242    3.5688 H   0  0  0  0  0  0  0  0  0  0  0  0
   13.9333   15.6325    5.0448 H   0  0  0  0  0  0  0  0  0  0  0  0
   12.0304   14.1401    4.4477 H   0  0  0  0  0  0  0  0  0  0  0  0
   12.4047   12.1660    2.9720 H   0  0  0  0  0  0  0  0  0  0  0  0
   14.6899   11.6812    2.0966 H   0  0  0  0  0  0  0  0  0  0  0  0
   16.5968   13.1676    2.6943 H   0  0  0  0  0  0  0  0  0  0  0  0
  2  1  2  0
  4  1  1  0
  4  3  1  0
  5  4  1  0
  6  5  2  0
  7  5  1  0
  8  2  1  0
  9  2  1  0
 10  9  1  0
 11 10  1  0
 12 11  2  0
 13 12  1  0
 14 13  2  0
 15 14  1  0
 16 15  2  0
 16 11  1  0
  3 17  1  0
  3 18  1  0
  3 19  1  0
  4 20  1  6
  8 21  1  0
 10 22  1  0
 10 23  1  0
 12 24  1  0
 13 25  1  0
 14 26  1  0
 15 27  1  0
 16 28  1  0
M  CHG  1   7  -1
M  END
$$$$
=
     RDKit          3D

 45 46  0  0  0  0  0  0  0  0999 V2000
   14.0410   14.0700    3.9950 C   0  0  2  0  0  0  0  0  0  0  0  0
   15.0670   13.0370    3.5060 C   0  0  0  0  0  0  0  0  0  0  0  0
   16.3140   13.7020    2.9140 C   0  0  0  0  0  0  0  0  0  0  0  0
   16.6900   15.0380    3.5490 C   0  0  0  0  0  0  0  0  0  0  0  0
   16.2310   15.0470    4.9780 N   0  0  2  0  0  4  0  0  0  0  0  0
   14.7110   14.9870    5.0820 C   0  0  0  0  0  0  0  0  0  0  0  0
   12.7730   13.2990    4.4550 N   0  0  2  0  0  4  0  0  0  0  0  0
   11.4550   12.5770    2.4660 C   0  0  0  0  0  0  0  0  0  0  0  0
   12.4690   12.1370    3.5070 C   0  0  0  0  0  0  0  0  0  0  0  0
   11.4840   14.2120    4.5480 C   0  0  0  0  0  0  0  0  0  0  0  0
   10.5000   13.8730    5.6980 C   0  0  0  0  0  0  0  0  0  0  0  0
   11.0600   13.3630    6.7070 O   0  0  0  0  0  0  0  0  0  0  0  0
    9.2910   13.8660    5.3480 O   0  0  0  0  0  1  0  0  0  0  0  0
   16.7460   16.2510    5.7620 C   0  0  0  0  0  0  0  0  0  0  0  0
   18.2460   16.2610    5.8750 C   0  0  0  0  0  0  0  0  0  0  0  0
   18.9870   17.3750    5.4500 C   0  0  0  0  0  0  0  0  0  0  0  0
   20.3800   17.3670    5.5270 C   0  0  0  0  0  0  0  0  0  0  0  0
   21.0460   16.2520    6.0300 C   0  0  0  0  0  0  0  0  0  0  0  0
   20.3220   15.1440    6.4640 C   0  0  0  0  0  0  0  0  0  0  0  0
   18.9280   15.1460    6.3880 C   0  0  0  0  0  0  0  0  0  0  0  0
   13.7127   14.7613    3.2049 H   0  0  0  0  0  0  0  0  0  0  0  0
   15.3698   12.4075    4.3558 H   0  0  0  0  0  0  0  0  0  0  0  0
   14.5941   12.4368    2.7147 H   0  0  0  0  0  0  0  0  0  0  0  0
   17.1619   13.0126    3.0401 H   0  0  0  0  0  0  0  0  0  0  0  0
   16.0805   13.9150    1.8604 H   0  0  0  0  0  0  0  0  0  0  0  0
   17.7814   15.1698    3.5115 H   0  0  0  0  0  0  0  0  0  0  0  0
   16.2077   15.8594    2.9989 H   0  0  0  0  0  0  0  0  0  0  0  0
   16.6345   14.1987    5.4004 H   0  0  0  0  0  0  0  0  0  0  0  0
   14.4456   14.5983    6.0762 H   0  0  0  0  0  0  0  0  0  0  0  0
   14.3361   16.0080    4.9179 H   0  0  0  0  0  0  0  0  0  0  0  0
   12.9905   12.9527    5.4003 H   0  0  0  0  0  0  0  0  0  0  0  0
   10.5579   12.9663    2.9696 H   0  0  0  0  0  0  0  0  0  0  0  0
   11.8938   13.3657    1.8371 H   0  0  0  0  0  0  0  0  0  0  0  0
   11.1787   11.7178    1.8371 H   0  0  0  0  0  0  0  0  0  0  0  0
   12.0598   11.2934    4.0822 H   0  0  0  0  0  0  0  0  0  0  0  0
   13.3961   11.8259    3.0034 H   0  0  0  0  0  0  0  0  0  0  0  0
   11.8158   15.2521    4.6829 H   0  0  0  0  0  0  0  0  0  0  0  0
   10.9263   14.0385    3.6159 H   0  0  0  0  0  0  0  0  0  0  0  0
   16.4239   17.1700    5.2505 H   0  0  0  0  0  0  0  0  0  0  0  0
   16.3328   16.1910    6.7797 H   0  0  0  0  0  0  0  0  0  0  0  0
   18.4663   18.2593    5.0540 H   0  0  0  0  0  0  0  0  0  0  0  0
   20.9534   18.2430    5.1898 H   0  0  0  0  0  0  0  0  0  0  0  0
   22.1446   16.2464    6.0846 H   0  0  0  0  0  0  0  0  0  0  0  0
   20.8491   14.2666    6.8670 H   0  0  0  0  0  0  0  0  0  0  0  0
   18.3605   14.2688    6.7321 H   0  0  0  0  0  0  0  0  0  0  0  0
  2  1  1  0
  3  2  1  0
  4  3  1  0
  5  4  1  0
  6  5  1  0
  6  1  1  0
  7  1  1  0
  9  8  1  0
  9  7  1  0
 10  7  1  0
 11 10  1  0
 12 11  2  0
 13 11  1  0
 14  5  1  0
 15 14  1  0
 16 15  2  0
 17 16  1  0
 18 17  2  0
 19 18  1  0
 20 19  2  0
 20 15  1  0
  1 21  1  6
  2 22  1  0
  2 23  1  0
  3 24  1  0
  3 25  1  0
  4 26  1  0
  4 27  1  0
  5 28  1  1
  6 29  1  0
  6 30  1  0
  7 31  1  1
  8 32  1  0
  8 33  1  0
  8 34  1  0
  9 35  1  0
  9 36  1  0
 10 37  1  0
 10 38  1  0
 14 39  1  0
 14 40  1  0
 16 41  1  0
 17 42  1  0
 18 43  1  0
 19 44  1  0
 20 45  1  0
M  CHG  3   5   1   7   1  13  -1
M  END
$$$$
=
     RDKit          3D

 41 41  0  0  0  0  0  0  0  0999 V2000
   18.3360   14.6930    3.6390 S   0  0  0  0  0  6  0  0  0  0  0  0
   18.5890   15.8870    2.8560 O   0  0  0  0  0  0  0  0  0  0  0  0
   18.8840   13.4200    3.2150 O   0  0  0  0  0  0  0  0  0  0  0  0
   16.5730   14.5120    3.7640 C   0  0  0  0  0  0  0  0  0  0  0  0
   15.9520   13.3690    3.2580 C   0  0  0  0  0  0  0  0  0  0  0  0
   14.5650   13.2190    3.3790 C   0  0  0  0  0  0  0  0  0  0  0  0
   13.7980   14.2070    3.9980 C   0  0  0  0  0  0  0  0  0  0  0  0
   14.4390   15.3410    4.5180 C   0  0  0  0  0  0  0  0  0  0  0  0
   15.8240   15.4870    4.4230 C   0  0  0  0  0  0  0  0  0  0  0  0
   12.3940   14.1570    4.1170 N   0  0  0  0  0  0  0  0  0  0  0  0
   11.5050   13.4530    3.3290 C   0  0  0  0  0  0  0  0  0  0  0  0
   11.7690   12.6480    2.4430 O   0  0  0  0  0  0  0  0  0  0  0  0
   10.0710   13.7290    3.7080 C   0  0  0  0  0  0  0  0  0  0  0  0
   18.8520   15.0230    5.2140 N   0  0  0  0  0  0  0  0  0  0  0  0
   19.9980   16.0040    5.3700 C   0  0  2  0  0  0  0  0  0  0  0  0
   20.9110   15.5270    6.5360 C   0  0  0  0  0  0  0  0  0  0  0  0
   21.8250   16.3200    6.8890 O   0  0  0  0  0  0  0  0  0  0  0  0
   20.6230   14.3620    6.9580 O   0  0  0  0  0  1  0  0  0  0  0  0
   19.4570   17.4180    5.5970 C   0  0  0  0  0  0  0  0  0  0  0  0
   19.9500   18.5300    4.6580 C   0  0  0  0  0  0  0  0  0  0  0  0
   22.4790   18.8330    4.4740 C   0  0  0  0  0  0  0  0  0  0  0  0
   21.2190   18.2500    3.8530 C   0  0  0  0  0  0  0  0  0  0  0  0
   16.5504   12.5883    2.7656 H   0  0  0  0  0  0  0  0  0  0  0  0
   14.0767   12.3162    2.9834 H   0  0  0  0  0  0  0  0  0  0  0  0
   13.8426   16.1254    5.0070 H   0  0  0  0  0  0  0  0  0  0  0  0
   16.3207   16.3637    4.8642 H   0  0  0  0  0  0  0  0  0  0  0  0
   11.9829   14.7109    4.8819 H   0  0  0  0  0  0  0  0  0  0  0  0
    9.9783   13.7468    4.8039 H   0  0  0  0  0  0  0  0  0  0  0  0
    9.7643   14.7027    3.2982 H   0  0  0  0  0  0  0  0  0  0  0  0
    9.4248   12.9387    3.2982 H   0  0  0  0  0  0  0  0  0  0  0  0
   18.0463   15.4010    5.7325 H   0  0  0  0  0  0  0  0  0  0  0  0
   20.6017   16.0384    4.4511 H   0  0  0  0  0  0  0  0  0  0  0  0
   18.3621   17.3700    5.5031 H   0  0  0  0  0  0  0  0  0  0  0  0
   19.8345   17.7044    6.5897 H   0  0  0  0  0  0  0  0  0  0  0  0
   19.1426   18.7406    3.9412 H   0  0  0  0  0  0  0  0  0  0  0  0
   20.2129   19.3670    5.3216 H   0  0  0  0  0  0  0  0  0  0  0  0
   22.3985   18.7957    5.5704 H   0  0  0  0  0  0  0  0  0  0  0  0
   23.3521   18.2473    4.1504 H   0  0  0  0  0  0  0  0  0  0  0  0
   22.5978   19.8776    4.1504 H   0  0  0  0  0  0  0  0  0  0  0  0
   21.3447   17.1603    3.7709 H   0  0  0  0  0  0  0  0  0  0  0  0
   21.0908   18.7331    2.8731 H   0  0  0  0  0  0  0  0  0  0  0  0
  2  1  2  0
  3  1  2  0
  4  1  1  0
  5  4  2  0
  6  5  1  0
  7  6  2  0
  8  7  1  0
  9  8  2  0
  9  4  1  0
 10  7  1  0
 11 10  1  0
 12 11  2  0
 13 11  1  0
 14  1  1  0
 15 14  1  0
 16 15  1  0
 17 16  2  0
 18 16  1  0
 19 15  1  0
 20 19  1  0
 22 20  1  0
 22 21  1  0
  5 23  1  0
  6 24  1  0
  8 25  1  0
  9 26  1  0
 10 27  1  0
 13 28  1  0
 13 29  1  0
 13 30  1  0
 14 31  1  0
 15 32  1  6
 19 33  1  0
 19 34  1  0
 20 35  1  0
 20 36  1  0
 21 37  1  0
 21 38  1  0
 21 39  1  0
 22 40  1  0
 22 41  1  0
M  CHG  1  18  -1
M  END
$$$$
=
     RDKit          3D

 26 26  0  0  0  0  0  0  0  0999 V2000
   18.1410   14.5480    4.6040 C   0  0  0  0  0  0  0  0  0  0  0  0
   18.4770   13.4590    3.7780 C   0  0  0  0  0  0  0  0  0  0  0  0
   17.5510   12.9010    2.9000 C   0  0  0  0  0  0  0  0  0  0  0  0
   16.2660   13.4260    2.8270 C   0  0  0  0  0  0  0  0  0  0  0  0
   15.9150   14.5100    3.6310 C   0  0  0  0  0  0  0  0  0  0  0  0
   16.8370   15.0900    4.5280 C   0  0  0  0  0  0  0  0  0  0  0  0
   16.4040   16.2870    5.3480 C   0  0  0  0  0  0  0  0  0  0  0  0
   17.2480   17.3500    5.2270 F   0  0  0  0  0  0  0  0  0  0  0  0
   15.1800   16.7710    4.9650 F   0  0  0  0  0  0  0  0  0  0  0  0
   16.2800   16.0330    6.6760 F   0  0  0  0  0  0  0  0  0  0  0  0
   19.2040   15.0870    5.5470 C   0  0  0  0  0  0  0  0  0  0  0  0
   20.4540   15.6170    4.8380 C   0  0  1  0  0  0  0  0  0  0  0  0
   20.1790   16.7900    3.9010 C   0  0  0  0  0  0  0  0  0  0  0  0
   21.3340   15.7280    7.0500 O   0  0  0  0  0  1  0  0  0  0  0  0
   21.4620   16.1560    5.8690 C   0  0  0  0  0  0  0  0  0  0  0  0
   22.2990   16.9830    5.4060 O   0  0  0  0  0  0  0  0  0  0  0  0
   19.4927   13.0396    3.8270 H   0  0  0  0  0  0  0  0  0  0  0  0
   17.8355   12.0479    2.2666 H   0  0  0  0  0  0  0  0  0  0  0  0
   15.5289   12.9881    2.1378 H   0  0  0  0  0  0  0  0  0  0  0  0
   14.8972   14.9219    3.5645 H   0  0  0  0  0  0  0  0  0  0  0  0
   18.7636   15.9080    6.1318 H   0  0  0  0  0  0  0  0  0  0  0  0
   19.5278   14.2451    6.1766 H   0  0  0  0  0  0  0  0  0  0  0  0
   20.8329   14.7596    4.2624 H   0  0  0  0  0  0  0  0  0  0  0  0
   19.9676   17.6917    4.4946 H   0  0  0  0  0  0  0  0  0  0  0  0
   21.0600   16.9669    3.2666 H   0  0  0  0  0  0  0  0  0  0  0  0
   19.3112   16.5569    3.2666 H   0  0  0  0  0  0  0  0  0  0  0  0
  2  1  2  0
  3  2  1  0
  4  3  2  0
  5  4  1  0
  6  5  2  0
  6  1  1  0
  7  6  1  0
  8  7  1  0
  9  7  1  0
 10  7  1  0
 11  1  1  0
 12 11  1  0
 13 12  1  0
 15 12  1  0
 15 14  1  0
 16 15  2  0
  2 17  1  0
  3 18  1  0
  4 19  1  0
  5 20  1  0
 11 21  1  0
 11 22  1  0
 12 23  1  6
 13 24  1  0
 13 25  1  0
 13 26  1  0
M  CHG  1  14  -1
M  END
$$$$
=
     RDKit          3D

 29 30  0  0  0  0  0  0  0  0999 V2000
   27.0920   26.1460   12.8860 N   0  0  0  0  0  0  0  0  0  0  0  0
   27.6080   26.7610   14.0170 C   0  0  0  0  0  0  0  0  0  0  0  0
   29.2700   26.9290   14.2610 S   0  0  0  0  0  0  0  0  0  0  0  0
   29.0400   27.6920   15.7760 C   0  0  0  0  0  0  0  0  0  0  0  0
   27.6930   27.8180   16.0950 C   0  0  0  0  0  0  0  0  0  0  0  0
   26.8650   27.2680   15.0480 C   0  0  0  0  0  0  0  0  0  0  0  0
   25.4220   27.2050   14.9610 C   0  0  0  0  0  0  0  0  0  0  0  0
   24.7010   27.5730   15.8890 O   0  0  0  0  0  0  0  0  0  0  0  0
   24.9310   26.6780   13.7690 N   0  0  0  0  0  0  0  0  0  0  0  0
   25.7020   26.0890   12.7540 C   0  0  0  0  0  0  0  0  0  0  0  0
   25.1460   25.4960   11.8220 O   0  0  0  0  0  0  0  0  0  0  0  0
   23.4950   26.6270   13.5960 C   0  0  0  0  0  0  0  0  0  0  0  0
   27.1570   28.4480   17.3410 C   0  0  0  0  0  0  0  0  0  0  0  0
   30.2300   28.1360   16.5600 C   0  0  0  0  0  0  0  0  0  0  0  0
   27.8990   25.7500   11.7150 C   0  0  0  0  0  0  0  0  0  0  0  0
   27.9440   23.6920   10.5430 O   0  0  0  0  0  1  0  0  0  0  0  0
   28.2590   24.2480   11.6380 C   0  0  0  0  0  0  0  0  0  0  0  0
   28.8110   23.7410   12.6560 O   0  0  0  0  0  0  0  0  0  0  0  0
   23.0073   26.6097   14.5818 H   0  0  0  0  0  0  0  0  0  0  0  0
   23.1613   27.5139   13.0373 H   0  0  0  0  0  0  0  0  0  0  0  0
   23.2250   25.7187   13.0373 H   0  0  0  0  0  0  0  0  0  0  0  0
   27.5855   27.9444   18.2201 H   0  0  0  0  0  0  0  0  0  0  0  0
   27.4297   29.5135   17.3597 H   0  0  0  0  0  0  0  0  0  0  0  0
   26.0616   28.3495   17.3597 H   0  0  0  0  0  0  0  0  0  0  0  0
   30.0120   28.0546   17.6351 H   0  0  0  0  0  0  0  0  0  0  0  0
   31.0915   27.4988   16.3113 H   0  0  0  0  0  0  0  0  0  0  0  0
   30.4636   29.1818   16.3113 H   0  0  0  0  0  0  0  0  0  0  0  0
   27.3332   26.0108   10.8084 H   0  0  0  0  0  0  0  0  0  0  0  0
   28.8543   26.2874   11.8081 H   0  0  0  0  0  0  0  0  0  0  0  0
  2  1  1  0
  3  2  1  0
  4  3  1  0
  5  4  2  0
  6  2  2  0
  6  5  1  0
  7  6  1  0
  8  7  2  0
  9  7  1  0
 10  9  1  0
 10  1  1  0
 11 10  2  0
 12  9  1  0
 13  5  1  0
 14  4  1  0
 15  1  1  0
 17 16  1  0
 17 15  1  0
 18 17  2  0
 12 19  1  0
 12 20  1  0
 12 21  1  0
 13 22  1  0
 13 23  1  0
 13 24  1  0
 14 25  1  0
 14 26  1  0
 14 27  1  0
 15 28  1  0
 15 29  1  0
M  CHG  1  16  -1
M  END
$$$$
=
     RDKit          3D

 44 45  0  0  0  0  0  0  0  0999 V2000
   25.4170   23.4790   13.6960 O   0  0  0  0  0  0  0  0  0  0  0  0
   25.5320   24.6960   13.7150 C   0  0  0  0  0  0  0  0  0  0  0  0
   26.2560   25.4450   12.7980 N   0  0  0  0  0  0  0  0  0  0  0  0
   26.8730   26.7140   13.1690 C   0  0  0  0  0  0  0  0  0  0  0  0
   28.4220   26.5970   13.1780 C   0  0  2  0  0  0  0  0  0  0  0  0
   28.8900   25.1290   13.3000 C   0  0  0  0  0  0  0  0  0  0  0  0
   28.2860   24.2200   12.2110 C   0  0  0  0  0  0  0  0  0  0  0  0
   26.9420   24.7440   11.6870 C   0  0  1  0  0  0  0  0  0  0  0  0
   29.0550   27.4890   14.2340 C   0  0  0  0  0  0  0  0  0  0  0  0
   28.6300   28.8170   14.3790 C   0  0  0  0  0  0  0  0  0  0  0  0
   29.2020   29.6470   15.3460 C   0  0  0  0  0  0  0  0  0  0  0  0
   30.2050   29.1580   16.1800 C   0  0  0  0  0  0  0  0  0  0  0  0
   30.6380   27.8400   16.0490 C   0  0  0  0  0  0  0  0  0  0  0  0
   30.0670   27.0110   15.0810 C   0  0  0  0  0  0  0  0  0  0  0  0
   26.1010   23.7450   10.8270 C   0  0  0  0  0  0  0  0  0  0  0  0
   26.5110   22.5440   10.8410 O   0  0  0  0  0  0  0  0  0  0  0  0
   25.0520   24.2210   10.3030 O   0  0  0  0  0  1  0  0  0  0  0  0
   24.9900   25.4840   14.6870 O   0  0  0  0  0  0  0  0  0  0  0  0
   23.5770   25.7950   14.6860 C   0  0  0  0  0  0  0  0  0  0  0  0
   23.1830   26.6320   13.4640 C   0  0  0  0  0  0  0  0  0  0  0  0
   23.3700   26.6480   15.9480 C   0  0  0  0  0  0  0  0  0  0  0  0
   22.7240   24.5270   14.8160 C   0  0  0  0  0  0  0  0  0  0  0  0
   26.5745   27.4851   12.4435 H   0  0  0  0  0  0  0  0  0  0  0  0
   26.5357   26.9858   14.1801 H   0  0  0  0  0  0  0  0  0  0  0  0
   28.7752   26.9626   12.2025 H   0  0  0  0  0  0  0  0  0  0  0  0
   29.9863   25.1007   13.2139 H   0  0  0  0  0  0  0  0  0  0  0  0
   28.5489   24.7513   14.2752 H   0  0  0  0  0  0  0  0  0  0  0  0
   28.9928   24.1591   11.3704 H   0  0  0  0  0  0  0  0  0  0  0  0
   28.1071   23.2325   12.6613 H   0  0  0  0  0  0  0  0  0  0  0  0
   27.1249   25.4859   10.8957 H   0  0  0  0  0  0  0  0  0  0  0  0
   27.8378   29.2095   13.7245 H   0  0  0  0  0  0  0  0  0  0  0  0
   28.8602   30.6875   15.4490 H   0  0  0  0  0  0  0  0  0  0  0  0
   30.6549   29.8119   16.9415 H   0  0  0  0  0  0  0  0  0  0  0  0
   31.4292   27.4527   16.7078 H   0  0  0  0  0  0  0  0  0  0  0  0
   30.4142   25.9720   14.9812 H   0  0  0  0  0  0  0  0  0  0  0  0
   22.7366   27.5804   13.7976 H   0  0  0  0  0  0  0  0  0  0  0  0
   24.0774   26.8407   12.8587 H   0  0  0  0  0  0  0  0  0  0  0  0
   22.4522   26.0757   12.8587 H   0  0  0  0  0  0  0  0  0  0  0  0
   23.5214   26.0241   16.8412 H   0  0  0  0  0  0  0  0  0  0  0  0
   24.0930   27.4770   15.9529 H   0  0  0  0  0  0  0  0  0  0  0  0
   22.3474   27.0533   15.9529 H   0  0  0  0  0  0  0  0  0  0  0  0
   22.5691   24.2968   15.8804 H   0  0  0  0  0  0  0  0  0  0  0  0
   21.7503   24.6887   14.3304 H   0  0  0  0  0  0  0  0  0  0  0  0
   23.2408   23.6861   14.3304 H   0  0  0  0  0  0  0  0  0  0  0  0
  2  1  2  0
  3  2  1  0
  4  3  1  0
  5  4  1  0
  6  5  1  0
  7  6  1  0
  8  3  1  0
  8  7  1  0
  9  5  1  0
 10  9  2  0
 11 10  1  0
 12 11  2  0
 13 12  1  0
 14 13  2  0
 14  9  1  0
 15  8  1  0
 16 15  2  0
 17 15  1  0
 18  2  1  0
 19 18  1  0
 20 19  1  0
 21 19  1  0
 22 19  1  0
  4 23  1  0
  4 24  1  0
  5 25  1  6
  6 26  1  0
  6 27  1  0
  7 28  1  0
  7 29  1  0
  8 30  1  6
 10 31  1  0
 11 32  1  0
 12 33  1  0
 13 34  1  0
 14 35  1  0
 20 36  1  0
 20 37  1  0
 20 38  1  0
 21 39  1  0
 21 40  1  0
 21 41  1  0
 22 42  1  0
 22 43  1  0
 22 44  1  0
M  CHG  1  17  -1
M  END
$$$$
=
     RDKit          3D

 70 74  0  0  0  0  0  0  0  0999 V2000
   12.8460   13.3650    4.5230 C   0  0  1  0  0  0  0  0  0  0  0  0
   13.8050   12.5240    3.6670 C   0  0  0  0  0  0  0  0  0  0  0  0
   15.2860   12.8970    3.8300 C   0  0  0  0  0  0  0  0  0  0  0  0
   15.5500   14.4150    3.6450 C   0  0  1  0  0  0  0  0  0  0  0  0
   14.6230   15.1360    4.6750 C   0  0  2  0  0  0  0  0  0  0  0  0
   13.1390   14.8680    4.4160 C   0  0  0  0  0  0  0  0  0  0  0  0
   14.9750   16.6160    4.8160 C   0  0  0  0  0  0  0  0  0  0  0  0
   16.4130   16.7940    5.3350 C   0  0  0  0  0  0  0  0  0  0  0  0
   17.2670   15.5070    5.2510 C   0  0  1  0  0  0  0  0  0  0  0  0
   17.0510   14.8540    3.8720 C   0  0  1  0  0  0  0  0  0  0  0  0
   18.0970   13.7670    3.6350 C   0  0  0  0  0  0  0  0  0  0  0  0
   19.5130   14.3430    3.5670 C   0  0  0  0  0  0  0  0  0  0  0  0
   19.7680   15.5850    4.4490 C   0  0  1  0  0  0  0  0  0  0  0  0
   18.7460   15.7920    5.5930 C   0  0  2  0  0  0  0  0  0  0  0  0
   19.2660   14.8720    6.7100 C   0  0  0  0  0  0  0  0  0  0  0  0
   20.7710   15.0850    6.7090 C   0  0  0  0  0  0  0  0  0  0  0  0
   21.0470   15.3500    5.2520 C   0  0  0  0  0  0  0  0  0  0  0  0
   22.1780   15.3760    4.7810 O   0  0  0  0  0  0  0  0  0  0  0  0
   19.9230   16.8570    3.6090 C   0  0  0  0  0  0  0  0  0  0  0  0
   15.2110   14.7960    2.1760 C   0  0  0  0  0  0  0  0  0  0  0  0
   11.5230   13.0750    4.0730 O   0  0  0  0  0  0  0  0  0  0  0  0
    8.5190   13.9220    3.1490 C   0  0  2  0  0  0  0  0  0  0  0  0
    9.7670   14.5960    3.4750 O   0  0  0  0  0  0  0  0  0  0  0  0
   10.5340   13.9980    4.5210 C   0  0  1  0  0  0  0  0  0  0  0  0
    9.6840   13.3590    5.6490 C   0  0  2  0  0  0  0  0  0  0  0  0
    8.3190   14.0370    5.6770 C   0  0  1  0  0  0  0  0  0  0  0  0
    7.5720   13.8630    4.3540 C   0  0  1  0  0  0  0  0  0  0  0  0
    9.5500   12.4610    1.5630 O   0  0  0  0  0  1  0  0  0  0  0  0
    8.7540   12.5080    2.5470 C   0  0  0  0  0  0  0  0  0  0  0  0
    8.1020   11.5660    3.0830 O   0  0  0  0  0  0  0  0  0  0  0  0
    6.5950   14.9340    4.2900 O   0  0  0  0  0  0  0  0  0  0  0  0
    7.5080   13.5590    6.7700 O   0  0  0  0  0  0  0  0  0  0  0  0
   10.2930   13.5300    6.9580 O   0  0  0  0  0  0  0  0  0  0  0  0
   12.9720   13.1075    5.5850 H   0  0  0  0  0  0  0  0  0  0  0  0
   13.6823   11.4677    3.9483 H   0  0  0  0  0  0  0  0  0  0  0  0
   13.5439   12.7183    2.6163 H   0  0  0  0  0  0  0  0  0  0  0  0
   15.6128   12.6042    4.8387 H   0  0  0  0  0  0  0  0  0  0  0  0
   15.8483   12.3663    3.0476 H   0  0  0  0  0  0  0  0  0  0  0  0
   14.8187   14.6911    5.6618 H   0  0  0  0  0  0  0  0  0  0  0  0
   12.5365   15.4097    5.1601 H   0  0  0  0  0  0  0  0  0  0  0  0
   12.8831   15.2127    3.4032 H   0  0  0  0  0  0  0  0  0  0  0  0
   14.8844   17.1025    3.8336 H   0  0  0  0  0  0  0  0  0  0  0  0
   14.2827   17.0736    5.5380 H   0  0  0  0  0  0  0  0  0  0  0  0
   16.9038   17.5763    4.7374 H   0  0  0  0  0  0  0  0  0  0  0  0
   16.3402   17.0632    6.3991 H   0  0  0  0  0  0  0  0  0  0  0  0
   16.9418   14.7803    6.0100 H   0  0  0  0  0  0  0  0  0  0  0  0
   17.2160   15.6028    3.0833 H   0  0  0  0  0  0  0  0  0  0  0  0
   18.0479   13.0404    4.4594 H   0  0  0  0  0  0  0  0  0  0  0  0
   17.8774   13.2871    2.6699 H   0  0  0  0  0  0  0  0  0  0  0  0
   20.2147   13.5555    3.8793 H   0  0  0  0  0  0  0  0  0  0  0  0
   19.6544   14.6758    2.5281 H   0  0  0  0  0  0  0  0  0  0  0  0
   18.6985   16.8568    5.8649 H   0  0  0  0  0  0  0  0  0  0  0  0
   18.8337   15.1564    7.6807 H   0  0  0  0  0  0  0  0  0  0  0  0
   18.9925   13.8192    6.5459 H   0  0  0  0  0  0  0  0  0  0  0  0
   21.0535   15.9459    7.3327 H   0  0  0  0  0  0  0  0  0  0  0  0
   21.3397   14.2389    7.1221 H   0  0  0  0  0  0  0  0  0  0  0  0
   20.0289   17.7258    4.2753 H   0  0  0  0  0  0  0  0  0  0  0  0
   20.8173   16.7706    2.9743 H   0  0  0  0  0  0  0  0  0  0  0  0
   19.0342   16.9878    2.9743 H   0  0  0  0  0  0  0  0  0  0  0  0
   14.4798   15.6178    2.1697 H   0  0  0  0  0  0  0  0  0  0  0  0
   16.1277   15.1169    1.6595 H   0  0  0  0  0  0  0  0  0  0  0  0
   14.7857   13.9228    1.6595 H   0  0  0  0  0  0  0  0  0  0  0  0
    8.0303   14.5276    2.3715 H   0  0  0  0  0  0  0  0  0  0  0  0
   11.0614   14.8622    4.9511 H   0  0  0  0  0  0  0  0  0  0  0  0
    9.6047   12.2824    5.4379 H   0  0  0  0  0  0  0  0  0  0  0  0
    8.5062   15.1103    5.8287 H   0  0  0  0  0  0  0  0  0  0  0  0
    7.0915   12.8743    4.3147 H   0  0  0  0  0  0  0  0  0  0  0  0
    6.3451   15.2080    5.2079 H   0  0  0  0  0  0  0  0  0  0  0  0
    7.9317   13.8088    7.6292 H   0  0  0  0  0  0  0  0  0  0  0  0
    9.6221   13.3416    7.6612 H   0  0  0  0  0  0  0  0  0  0  0  0
  2  1  1  0
  3  2  1  0
  4  3  1  0
  5  4  1  0
  6  5  1  0
  6  1  1  0
  7  5  1  0
  8  7  1  0
  9  8  1  0
 10  4  1  0
 10  9  1  0
 11 10  1  0
 12 11  1  0
 13 12  1  0
 14 13  1  0
 14  9  1  0
 15 14  1  0
 16 15  1  0
 17 13  1  0
 17 16  1  0
 18 17  2  0
 13 19  1  6
  4 20  1  6
 21  1  1  0
 23 22  1  0
 24 23  1  0
 24 21  1  0
 25 24  1  0
 26 25  1  0
 27 22  1  0
 27 26  1  0
 29 28  1  0
 29 22  1  0
 30 29  2  0
 31 27  1  0
 32 26  1  0
 33 25  1  0
  1 34  1  1
  2 35  1  0
  2 36  1  0
  3 37  1  0
  3 38  1  0
  5 39  1  1
  6 40  1  0
  6 41  1  0
  7 42  1  0
  7 43  1  0
  8 44  1  0
  8 45  1  0
  9 46  1  1
 10 47  1  6
 11 48  1  0
 11 49  1  0
 12 50  1  0
 12 51  1  0
 14 52  1  1
 15 53  1  0
 15 54  1  0
 16 55  1  0
 16 56  1  0
 19 57  1  0
 19 58  1  0
 19 59  1  0
 20 60  1  0
 20 61  1  0
 20 62  1  0
 22 63  1  6
 24 64  1  1
 25 65  1  6
 26 66  1  1
 27 67  1  1
 31 68  1  0
 32 69  1  0
 33 70  1  0
M  CHG  1  28  -1
M  END
$$$$
=
     RDKit          3D

 32 32  0  0  0  0  0  0  0  0999 V2000
   18.8270   15.9690    4.0170 S   0  0  0  0  0  6  0  0  0  0  0  0
   18.8340   17.2900    3.4270 O   0  0  0  0  0  0  0  0  0  0  0  0
   19.6250   14.8880    3.4760 O   0  0  0  0  0  0  0  0  0  0  0  0
   17.1540   15.4460    4.1400 C   0  0  0  0  0  0  0  0  0  0  0  0
   16.7250   14.2790    3.5000 C   0  0  0  0  0  0  0  0  0  0  0  0
   15.3710   13.9060    3.5220 C   0  0  0  0  0  0  0  0  0  0  0  0
   14.4690   14.7050    4.2430 C   0  0  0  0  0  0  0  0  0  0  0  0
   14.9050   15.8510    4.9100 C   0  0  0  0  0  0  0  0  0  0  0  0
   16.2470   16.2200    4.8510 C   0  0  0  0  0  0  0  0  0  0  0  0
   16.6290   17.3230    5.5070 F   0  0  0  0  0  0  0  0  0  0  0  0
   14.9040   12.6830    2.7600 C   0  0  0  0  0  0  0  0  0  0  0  0
   15.8070   11.9870    2.2010 O   0  0  0  0  0  0  0  0  0  0  0  0
   13.6540   12.4650    2.7270 O   0  0  0  0  0  1  0  0  0  0  0  0
   19.3390   16.1670    5.6140 N   0  0  0  0  0  0  0  0  0  0  0  0
   20.0910   15.0880    6.2660 C   0  0  0  0  0  0  0  0  0  0  0  0
   21.5450   15.5170    6.4160 C   0  0  0  0  0  0  0  0  0  0  0  0
   21.7140   16.9970    6.1050 C   0  0  0  0  0  0  0  0  0  0  0  0
   22.0490   18.4760    4.3030 C   0  0  0  0  0  0  0  0  0  0  0  0
   22.1550   17.1320    4.7530 O   0  0  0  0  0  0  0  0  0  0  0  0
   17.4554   13.6467    2.9740 H   0  0  0  0  0  0  0  0  0  0  0  0
   13.4061   14.4244    4.2826 H   0  0  0  0  0  0  0  0  0  0  0  0
   14.1902   16.4616    5.4812 H   0  0  0  0  0  0  0  0  0  0  0  0
   19.9365   17.0057    5.6363 H   0  0  0  0  0  0  0  0  0  0  0  0
   19.6616   14.8868    7.2585 H   0  0  0  0  0  0  0  0  0  0  0  0
   20.0342   14.1744    5.6560 H   0  0  0  0  0  0  0  0  0  0  0  0
   21.8708   15.3275    7.4494 H   0  0  0  0  0  0  0  0  0  0  0  0
   22.1550   14.9388    5.7064 H   0  0  0  0  0  0  0  0  0  0  0  0
   20.7522   17.5149    6.2344 H   0  0  0  0  0  0  0  0  0  0  0  0
   22.4533   17.4419    6.7872 H   0  0  0  0  0  0  0  0  0  0  0  0
   21.9958   19.1501    5.1706 H   0  0  0  0  0  0  0  0  0  0  0  0
   22.9299   18.7297    3.6950 H   0  0  0  0  0  0  0  0  0  0  0  0
   21.1392   18.5884    3.6950 H   0  0  0  0  0  0  0  0  0  0  0  0
  2  1  2  0
  3  1  2  0
  4  1  1  0
  5  4  2  0
  6  5  1  0
  7  6  2  0
  8  7  1  0
  9  8  2  0
  9  4  1  0
 10  9  1  0
 11  6  1  0
 12 11  2  0
 13 11  1  0
 14  1  1  0
 15 14  1  0
 16 15  1  0
 17 16  1  0
 19 17  1  0
 19 18  1  0
  5 20  1  0
  7 21  1  0
  8 22  1  0
 14 23  1  0
 15 24  1  0
 15 25  1  0
 16 26  1  0
 16 27  1  0
 17 28  1  0
 17 29  1  0
 18 30  1  0
 18 31  1  0
 18 32  1  0
M  CHG  1  13  -1
M  END
$$$$
=
     RDKit          3D

 30 30  0  0  0  0  0  0  0  0999 V2000
   18.0810   15.0970    3.6450 N   0  0  0  0  0  0  0  0  0  0  0  0
   19.1510   14.9280    4.5170 C   0  0  0  0  0  0  0  0  0  0  0  0
   19.2290   14.1060    5.4230 O   0  0  0  0  0  0  0  0  0  0  0  0
   15.7550   14.8730    4.3410 C   0  0  0  0  0  0  0  0  0  0  0  0
   14.5400   14.1590    4.3130 C   0  0  0  0  0  0  0  0  0  0  0  0
   14.4060   12.9970    3.5560 C   0  0  0  0  0  0  0  0  0  0  0  0
   15.4870   12.5310    2.8200 C   0  0  0  0  0  0  0  0  0  0  0  0
   16.7020   13.2220    2.8430 C   0  0  0  0  0  0  0  0  0  0  0  0
   16.8580   14.3900    3.5990 C   0  0  0  0  0  0  0  0  0  0  0  0
   16.3670   15.8390    6.5860 C   0  0  0  0  0  0  0  0  0  0  0  0
   15.8110   16.1200    5.1980 C   0  0  0  0  0  0  0  0  0  0  0  0
   20.2510   15.9250    4.1940 C   0  0  0  0  0  0  0  0  0  0  0  0
   20.4280   17.0140    5.2380 C   0  0  0  0  0  0  0  0  0  0  0  0
   21.6210   16.7390    6.1530 C   0  0  0  0  0  0  0  0  0  0  0  0
   22.6560   17.4090    5.8780 O   0  0  0  0  0  0  0  0  0  0  0  0
   21.4420   15.8860    7.0680 O   0  0  0  0  0  1  0  0  0  0  0  0
   18.1951   15.8369    2.9375 H   0  0  0  0  0  0  0  0  0  0  0  0
   13.6837   14.5252    4.8983 H   0  0  0  0  0  0  0  0  0  0  0  0
   13.4503   12.4526    3.5416 H   0  0  0  0  0  0  0  0  0  0  0  0
   15.3872   11.6161    2.2175 H   0  0  0  0  0  0  0  0  0  0  0  0
   17.5510   12.8411    2.2564 H   0  0  0  0  0  0  0  0  0  0  0  0
   15.6566   16.1981    7.3452 H   0  0  0  0  0  0  0  0  0  0  0  0
   16.5181   14.7563    6.7082 H   0  0  0  0  0  0  0  0  0  0  0  0
   17.3283   16.3595    6.7082 H   0  0  0  0  0  0  0  0  0  0  0  0
   16.4543   16.8619    4.7023 H   0  0  0  0  0  0  0  0  0  0  0  0
   14.7837   16.4955    5.3154 H   0  0  0  0  0  0  0  0  0  0  0  0
   21.1996   15.3754    4.1040 H   0  0  0  0  0  0  0  0  0  0  0  0
   19.9598   16.4264    3.2593 H   0  0  0  0  0  0  0  0  0  0  0  0
   20.5866   17.9747    4.7262 H   0  0  0  0  0  0  0  0  0  0  0  0
   19.5209   17.0404    5.8597 H   0  0  0  0  0  0  0  0  0  0  0  0
  2  1  1  0
  3  2  2  0
  5  4  2  0
  6  5  1  0
  7  6  2  0
  8  7  1  0
  9  4  1  0
  9  8  2  0
  9  1  1  0
 11  4  1  0
 11 10  1  0
 12  2  1  0
 13 12  1  0
 14 13  1  0
 15 14  2  0
 16 14  1  0
  1 17  1  0
  5 18  1  0
  6 19  1  0
  7 20  1  0
  8 21  1  0
 10 22  1  0
 10 23  1  0
 10 24  1  0
 11 25  1  0
 11 26  1  0
 12 27  1  0
 12 28  1  0
 13 29  1  0
 13 30  1  0
M  CHG  1  16  -1
M  END
$$$$
=
     RDKit          3D

 31 32  0  0  0  0  0  0  0  0999 V2000
   12.7560   13.9390    4.0810 C   0  0  0  0  0  0  0  0  0  0  0  0
   12.8950   12.7400    3.4020 C   0  0  0  0  0  0  0  0  0  0  0  0
   14.5460   12.4370    3.0680 S   0  0  0  0  0  0  0  0  0  0  0  0
   14.9540   13.9040    3.8190 C   0  0  0  0  0  0  0  0  0  0  0  0
   13.9580   14.6130    4.2920 N   0  0  0  0  0  0  0  0  0  0  0  0
   16.2410   14.3490    3.9620 N   0  0  0  0  0  0  0  0  0  0  0  0
   17.3810   13.7660    3.4860 C   0  0  0  0  0  0  0  0  0  0  0  0
   17.5000   12.7920    2.7550 O   0  0  0  0  0  0  0  0  0  0  0  0
   18.6220   14.4950    3.8740 C   0  0  0  0  0  0  0  0  0  0  0  0
   18.7190   15.8340    3.8920 C   0  0  0  0  0  0  0  0  0  0  0  0
   19.9280   16.5580    4.3060 C   0  0  0  0  0  0  0  0  0  0  0  0
   20.3490   17.7380    3.6740 C   0  0  0  0  0  0  0  0  0  0  0  0
   21.5220   18.3810    4.0810 C   0  0  0  0  0  0  0  0  0  0  0  0
   22.2790   17.8380    5.1110 C   0  0  0  0  0  0  0  0  0  0  0  0
   21.8900   16.6620    5.7400 C   0  0  0  0  0  0  0  0  0  0  0  0
   20.7190   16.0190    5.3330 C   0  0  0  0  0  0  0  0  0  0  0  0
   23.4030   18.4540    5.5000 F   0  0  0  0  0  0  0  0  0  0  0  0
   11.4900   14.5840    4.5400 C   0  0  0  0  0  0  0  0  0  0  0  0
    9.5240   13.4900    5.2690 O   0  0  0  0  0  1  0  0  0  0  0  0
   10.7380   13.7220    5.5490 C   0  0  0  0  0  0  0  0  0  0  0  0
   11.4000   13.3590    6.5650 O   0  0  0  0  0  0  0  0  0  0  0  0
   12.0639   12.0777    3.1182 H   0  0  0  0  0  0  0  0  0  0  0  0
   16.3638   15.2250    4.4897 H   0  0  0  0  0  0  0  0  0  0  0  0
   19.5049   13.9048    4.1607 H   0  0  0  0  0  0  0  0  0  0  0  0
   17.8436   16.4220    3.5790 H   0  0  0  0  0  0  0  0  0  0  0  0
   19.7518   18.1602    2.8524 H   0  0  0  0  0  0  0  0  0  0  0  0
   21.8431   19.3108    3.5886 H   0  0  0  0  0  0  0  0  0  0  0  0
   22.4998   16.2404    6.5526 H   0  0  0  0  0  0  0  0  0  0  0  0
   20.4137   15.0819    5.8215 H   0  0  0  0  0  0  0  0  0  0  0  0
   11.7337   15.5484    5.0097 H   0  0  0  0  0  0  0  0  0  0  0  0
   10.8418   14.7194    3.6616 H   0  0  0  0  0  0  0  0  0  0  0  0
  2  1  2  0
  3  2  1  0
  4  3  1  0
  5  4  2  0
  5  1  1  0
  6  4  1  0
  7  6  1  0
  8  7  2  0
  9  7  1  0
 10  9  2  0
 11 10  1  0
 12 11  2  0
 13 12  1  0
 14 13  2  0
 15 14  1  0
 16 11  1  0
 16 15  2  0
 17 14  1  0
 18  1  1  0
 20 19  1  0
 20 18  1  0
 21 20  2  0
  2 22  1  0
  6 23  1  0
  9 24  1  0
 10 25  1  0
 12 26  1  0
 13 27  1  0
 15 28  1  0
 16 29  1  0
 18 30  1  0
 18 31  1  0
M  CHG  1  19  -1
M  END
$$$$
=
     RDKit          3D

 44 46  0  0  0  0  0  0  0  0999 V2000
   25.4470   26.1790   14.7730 C   0  0  0  0  0  0  0  0  0  0  0  0
   24.5070   26.9130   15.5050 C   0  0  0  0  0  0  0  0  0  0  0  0
   24.7570   27.3180   16.9310 C   0  0  0  0  0  0  0  0  0  0  0  0
   23.3100   27.2920   14.9760 N   0  0  0  0  0  0  0  0  0  0  0  0
   23.0580   26.9430   13.6990 C   0  0  0  0  0  0  0  0  0  0  0  0
   23.9400   26.2310   12.9040 C   0  0  0  0  0  0  0  0  0  0  0  0
   25.1770   25.8370   13.4330 C   0  0  0  0  0  0  0  0  0  0  0  0
   29.0920   26.3470   15.8760 C   0  0  1  0  0  0  0  0  0  0  0  0
   29.9410   27.5320   16.4160 C   0  0  0  0  0  0  0  0  0  0  0  0
   29.3530   28.8310   16.2200 O   0  0  0  0  0  0  0  0  0  0  0  0
   28.8900   28.9420   14.8720 C   0  0  0  0  0  0  0  0  0  0  0  0
   27.6810   28.0310   14.6650 C   0  0  0  0  0  0  0  0  0  0  0  0
   27.7660   26.7470   15.3730 N   0  0  0  0  0  0  0  0  0  0  0  0
   26.7290   25.8190   15.4060 C   0  0  0  0  0  0  0  0  0  0  0  0
   26.7930   24.7090   15.9320 O   0  0  0  0  0  0  0  0  0  0  0  0
   29.8510   25.4290   14.9100 C   0  0  0  0  0  0  0  0  0  0  0  0
   29.9920   23.9700   16.7460 O   0  0  0  0  0  1  0  0  0  0  0  0
   30.2680   24.1010   15.5210 C   0  0  0  0  0  0  0  0  0  0  0  0
   30.8440   23.2930   14.7420 O   0  0  0  0  0  0  0  0  0  0  0  0
   26.1210   25.0970   12.5770 C   0  0  0  0  0  0  0  0  0  0  0  0
   25.9750   23.7160   12.3730 C   0  0  0  0  0  0  0  0  0  0  0  0
   26.8640   23.0110   11.5570 C   0  0  0  0  0  0  0  0  0  0  0  0
   27.9110   23.6780   10.9280 C   0  0  0  0  0  0  0  0  0  0  0  0
   28.0710   25.0490   11.1140 C   0  0  0  0  0  0  0  0  0  0  0  0
   27.1810   25.7520   11.9300 C   0  0  0  0  0  0  0  0  0  0  0  0
   24.3012   26.5797   17.6071 H   0  0  0  0  0  0  0  0  0  0  0  0
   25.8406   27.3636   17.1146 H   0  0  0  0  0  0  0  0  0  0  0  0
   24.3121   28.3071   17.1146 H   0  0  0  0  0  0  0  0  0  0  0  0
   22.0937   27.2417   13.2621 H   0  0  0  0  0  0  0  0  0  0  0  0
   23.6728   25.9770   11.8676 H   0  0  0  0  0  0  0  0  0  0  0  0
   28.8913   25.7283   16.7631 H   0  0  0  0  0  0  0  0  0  0  0  0
   30.0903   27.3827   17.4956 H   0  0  0  0  0  0  0  0  0  0  0  0
   30.8809   27.5268   15.8446 H   0  0  0  0  0  0  0  0  0  0  0  0
   28.6014   29.9839   14.6693 H   0  0  0  0  0  0  0  0  0  0  0  0
   29.6945   28.6407   14.1850 H   0  0  0  0  0  0  0  0  0  0  0  0
   26.7848   28.5615   15.0191 H   0  0  0  0  0  0  0  0  0  0  0  0
   27.6416   27.7975   13.5908 H   0  0  0  0  0  0  0  0  0  0  0  0
   29.2024   25.2240   14.0455 H   0  0  0  0  0  0  0  0  0  0  0  0
   30.7752   25.9554   14.6294 H   0  0  0  0  0  0  0  0  0  0  0  0
   25.1484   23.1805   12.8628 H   0  0  0  0  0  0  0  0  0  0  0  0
   26.7361   21.9282   11.4118 H   0  0  0  0  0  0  0  0  0  0  0  0
   28.6107   23.1236   10.2853 H   0  0  0  0  0  0  0  0  0  0  0  0
   28.8981   25.5784   10.6184 H   0  0  0  0  0  0  0  0  0  0  0  0
   27.3128   26.8354   12.0676 H   0  0  0  0  0  0  0  0  0  0  0  0
  2  1  2  0
  3  2  1  0
  4  2  1  0
  5  4  2  0
  6  5  1  0
  7  6  2  0
  7  1  1  0
  9  8  1  0
 10  9  1  0
 11 10  1  0
 12 11  1  0
 13  8  1  0
 13 12  1  0
 14  1  1  0
 14 13  1  0
 15 14  2  0
 16  8  1  0
 18 16  1  0
 18 17  1  0
 19 18  2  0
 20  7  1  0
 21 20  2  0
 22 21  1  0
 23 22  2  0
 24 23  1  0
 25 20  1  0
 25 24  2  0
  3 26  1  0
  3 27  1  0
  3 28  1  0
  5 29  1  0
  6 30  1  0
  8 31  1  1
  9 32  1  0
  9 33  1  0
 11 34  1  0
 11 35  1  0
 12 36  1  0
 12 37  1  0
 16 38  1  0
 16 39  1  0
 21 40  1  0
 22 41  1  0
 23 42  1  0
 24 43  1  0
 25 44  1  0
M  CHG  1  17  -1
M  END
$$$$
=
     RDKit          3D

 32 32  0  0  0  0  0  0  0  0999 V2000
   17.8800   16.4140    4.7130 C   0  0  1  0  0  0  0  0  0  0  0  0
   18.9440   17.5130    4.5420 C   0  0  0  0  0  0  0  0  0  0  0  0
   20.0580   17.1420    3.5480 C   0  0  0  0  0  0  0  0  0  0  0  0
   19.5710   17.2900    2.1020 C   0  0  0  0  0  0  0  0  0  0  0  0
   21.2600   18.0760    3.7520 C   0  0  0  0  0  0  0  0  0  0  0  0
   20.5550   15.8040    3.7010 O   0  0  0  0  0  0  0  0  0  0  0  0
   20.0180   15.0940    4.8190 C   0  0  0  0  0  0  0  0  0  0  0  0
   18.4910   14.9910    4.7470 C   0  0  2  0  0  0  0  0  0  0  0  0
   17.4080   18.0380    6.3780 O   0  0  0  0  0  1  0  0  0  0  0  0
   17.1960   16.8390    6.0310 C   0  0  0  0  0  0  0  0  0  0  0  0
   16.5540   15.9420    6.6480 O   0  0  0  0  0  0  0  0  0  0  0  0
   18.0040   14.1460    3.5350 C   0  0  0  0  0  0  0  0  0  0  0  0
   16.4830   14.1420    3.3510 C   0  0  0  0  0  0  0  0  0  0  0  0
   15.8570   12.8680    2.7700 C   0  0  0  0  0  0  0  0  0  0  0  0
   14.5990   12.7760    2.7970 O   0  0  0  0  0  0  0  0  0  0  0  0
   16.6990   12.0390    2.3070 O   0  0  0  0  0  1  0  0  0  0  0  0
   17.1736   16.3365    3.8733 H   0  0  0  0  0  0  0  0  0  0  0  0
   18.4466   18.4257    4.1821 H   0  0  0  0  0  0  0  0  0  0  0  0
   19.4211   17.6557    5.5228 H   0  0  0  0  0  0  0  0  0  0  0  0
   18.5185   17.6098    2.1005 H   0  0  0  0  0  0  0  0  0  0  0  0
   20.1837   18.0425    1.5840 H   0  0  0  0  0  0  0  0  0  0  0  0
   19.6614   16.3238    1.5840 H   0  0  0  0  0  0  0  0  0  0  0  0
   21.4382   18.2145    4.8286 H   0  0  0  0  0  0  0  0  0  0  0  0
   22.1524   17.6320    3.2868 H   0  0  0  0  0  0  0  0  0  0  0  0
   21.0503   19.0505    3.2868 H   0  0  0  0  0  0  0  0  0  0  0  0
   20.4430   14.0795    4.8341 H   0  0  0  0  0  0  0  0  0  0  0  0
   20.2809   15.6463    5.7333 H   0  0  0  0  0  0  0  0  0  0  0  0
   18.1457   14.4622    5.6476 H   0  0  0  0  0  0  0  0  0  0  0  0
   18.4621   14.5542    2.6220 H   0  0  0  0  0  0  0  0  0  0  0  0
   18.3044   13.1059    3.7301 H   0  0  0  0  0  0  0  0  0  0  0  0
   16.0286   14.3152    4.3377 H   0  0  0  0  0  0  0  0  0  0  0  0
   16.2826   14.9254    2.6053 H   0  0  0  0  0  0  0  0  0  0  0  0
  2  1  1  0
  3  2  1  0
  4  3  1  0
  5  3  1  0
  6  3  1  0
  7  6  1  0
  8  7  1  0
  8  1  1  0
 10  1  1  0
 10  9  1  0
 11 10  2  0
 12  8  1  0
 13 12  1  0
 14 13  1  0
 15 14  2  0
 16 14  1  0
  1 17  1  6
  2 18  1  0
  2 19  1  0
  4 20  1  0
  4 21  1  0
  4 22  1  0
  5 23  1  0
  5 24  1  0
  5 25  1  0
  7 26  1  0
  7 27  1  0
  8 28  1  1
 12 29  1  0
 12 30  1  0
 13 31  1  0
 13 32  1  0
M  CHG  2   9  -1  16  -1
M  END
$$$$
=
     RDKit          3D

 41 41  0  0  0  0  0  0  0  0999 V2000
   18.4070   16.6240    4.5730 N   0  0  0  0  0  0  0  0  0  0  0  0
   17.2410   16.3140    5.2890 C   0  0  0  0  0  0  0  0  0  0  0  0
   17.0690   16.6530    6.4610 O   0  0  0  0  0  0  0  0  0  0  0  0
   18.5590   16.3760    3.1380 C   0  0  0  0  0  0  0  0  0  0  0  0
   16.1760   15.5070    4.6510 C   0  0  0  0  0  0  0  0  0  0  0  0
   14.8380   15.8540    4.8460 C   0  0  0  0  0  0  0  0  0  0  0  0
   13.8240   15.0780    4.2790 C   0  0  0  0  0  0  0  0  0  0  0  0
   14.1610   13.9430    3.5330 C   0  0  0  0  0  0  0  0  0  0  0  0
   15.5040   13.5640    3.3510 C   0  0  0  0  0  0  0  0  0  0  0  0
   16.5040   14.3570    3.9280 C   0  0  0  0  0  0  0  0  0  0  0  0
   15.8760   12.3310    2.5580 C   0  0  0  0  0  0  0  0  0  0  0  0
   14.9270   11.6800    2.0220 O   0  0  0  0  0  0  0  0  0  0  0  0
   17.1140   12.0490    2.4930 O   0  0  0  0  0  1  0  0  0  0  0  0
   12.5540   15.5270    4.5240 O   0  0  0  0  0  0  0  0  0  0  0  0
   11.5220   14.5480    4.4820 C   0  0  0  0  0  0  0  0  0  0  0  0
   19.5740   17.0930    5.3540 C   0  0  2  0  0  0  0  0  0  0  0  0
   19.7200   18.6160    5.4410 C   0  0  0  0  0  0  0  0  0  0  0  0
   20.8870   16.4090    4.9280 C   0  0  0  0  0  0  0  0  0  0  0  0
   23.8510   18.7590    5.1100 C   0  0  0  0  0  0  0  0  0  0  0  0
   22.7800   17.9010    4.6600 N   0  0  0  0  0  0  0  0  0  0  0  0
   22.1190   17.0570    5.5230 C   0  0  0  0  0  0  0  0  0  0  0  0
   22.4810   16.8350    6.6750 O   0  0  0  0  0  0  0  0  0  0  0  0
   19.1282   15.4473    2.9847 H   0  0  0  0  0  0  0  0  0  0  0  0
   17.5657   16.2779    2.6756 H   0  0  0  0  0  0  0  0  0  0  0  0
   19.0973   17.2165    2.6756 H   0  0  0  0  0  0  0  0  0  0  0  0
   14.5818   16.7392    5.4466 H   0  0  0  0  0  0  0  0  0  0  0  0
   13.3623   13.3366    3.0810 H   0  0  0  0  0  0  0  0  0  0  0  0
   17.5597   14.0713    3.8107 H   0  0  0  0  0  0  0  0  0  0  0  0
   11.2339   14.2747    5.5078 H   0  0  0  0  0  0  0  0  0  0  0  0
   10.6491   14.9579    3.9529 H   0  0  0  0  0  0  0  0  0  0  0  0
   11.8853   13.6547    3.9529 H   0  0  0  0  0  0  0  0  0  0  0  0
   19.3546   16.7721    6.3830 H   0  0  0  0  0  0  0  0  0  0  0  0
   19.7493   18.9218    6.4972 H   0  0  0  0  0  0  0  0  0  0  0  0
   20.6518   18.9240    4.9441 H   0  0  0  0  0  0  0  0  0  0  0  0
   18.8637   19.0954    4.9441 H   0  0  0  0  0  0  0  0  0  0  0  0
   20.8543   15.3581    5.2513 H   0  0  0  0  0  0  0  0  0  0  0  0
   20.9644   16.5035    3.8348 H   0  0  0  0  0  0  0  0  0  0  0  0
   23.8707   18.7748    6.2097 H   0  0  0  0  0  0  0  0  0  0  0  0
   24.8106   18.3769    4.7315 H   0  0  0  0  0  0  0  0  0  0  0  0
   23.6875   19.7788    4.7315 H   0  0  0  0  0  0  0  0  0  0  0  0
   22.5038   17.9213    3.6679 H   0  0  0  0  0  0  0  0  0  0  0  0
  2  1  1  0
  3  2  2  0
  4  1  1  0
  5  2  1  0
  6  5  2  0
  7  6  1  0
  8  7  2  0
  9  8  1  0
 10  9  2  0
 10  5  1  0
 11  9  1  0
 12 11  2  0
 13 11  1  0
 14  7  1  0
 15 14  1  0
 16  1  1  0
 17 16  1  0
 18 16  1  0
 20 19  1  0
 21 18  1  0
 21 20  1  0
 22 21  2  0
  4 23  1  0
  4 24  1  0
  4 25  1  0
  6 26  1  0
  8 27  1  0
 10 28  1  0
 15 29  1  0
 15 30  1  0
 15 31  1  0
 16 32  1  1
 17 33  1  0
 17 34  1  0
 17 35  1  0
 18 36  1  0
 18 37  1  0
 19 38  1  0
 19 39  1  0
 19 40  1  0
 20 41  1  0
M  CHG  1  13  -1
M  END
$$$$
=
     RDKit          3D

 23 24  0  0  0  0  0  0  0  0999 V2000
   13.2310   13.6710    3.9860 C   0  0  0  0  0  0  0  0  0  0  0  0
   13.2390   12.4040    3.2420 C   0  0  0  0  0  0  0  0  0  0  0  0
   12.2910   11.6270    3.1860 O   0  0  0  0  0  0  0  0  0  0  0  0
   14.4110   12.1180    2.5710 N   0  0  0  0  0  0  0  0  0  0  0  0
   15.5500   12.8700    2.5660 N   0  0  0  0  0  0  0  0  0  0  0  0
   15.4990   13.9710    3.2480 C   0  0  0  0  0  0  0  0  0  0  0  0
   14.3130   14.4620    3.9940 C   0  0  0  0  0  0  0  0  0  0  0  0
   14.4710   15.7910    4.6700 C   0  0  0  0  0  0  0  0  0  0  0  0
   15.7830   15.8850    5.4550 C   0  0  0  0  0  0  0  0  0  0  0  0
   16.9930   15.2430    4.7620 C   0  0  0  0  0  0  0  0  0  0  0  0
   16.7320   14.8460    3.3150 C   0  0  0  0  0  0  0  0  0  0  0  0
   11.2140   14.8640    4.0810 O   0  0  0  0  0  1  0  0  0  0  0  0
   11.9890   14.0980    4.7260 C   0  0  0  0  0  0  0  0  0  0  0  0
   11.8120   13.5400    5.8480 O   0  0  0  0  0  0  0  0  0  0  0  0
   14.4276   11.2491    2.0181 H   0  0  0  0  0  0  0  0  0  0  0  0
   14.4575   16.5818    3.9055 H   0  0  0  0  0  0  0  0  0  0  0  0
   13.6408   15.9102    5.3817 H   0  0  0  0  0  0  0  0  0  0  0  0
   16.0077   16.9490    5.6205 H   0  0  0  0  0  0  0  0  0  0  0  0
   15.6269   15.3251    6.3889 H   0  0  0  0  0  0  0  0  0  0  0  0
   17.8251   15.9622    4.7798 H   0  0  0  0  0  0  0  0  0  0  0  0
   17.2244   14.3187    5.3116 H   0  0  0  0  0  0  0  0  0  0  0  0
   17.5977   14.2906    2.9250 H   0  0  0  0  0  0  0  0  0  0  0  0
   16.5740   15.7502    2.7088 H   0  0  0  0  0  0  0  0  0  0  0  0
  2  1  1  0
  3  2  2  0
  4  2  1  0
  5  4  1  0
  6  5  2  0
  7  6  1  0
  7  1  2  0
  8  7  1  0
  9  8  1  0
 10  9  1  0
 11  6  1  0
 11 10  1  0
 13 12  1  0
 13  1  1  0
 14 13  2  0
  4 15  1  0
  8 16  1  0
  8 17  1  0
  9 18  1  0
  9 19  1  0
 10 20  1  0
 10 21  1  0
 11 22  1  0
 11 23  1  0
M  CHG  1  12  -1
M  END
$$$$
=
     RDKit          3D

 55 57  0  0  0  0  0  0  0  0999 V2000
   26.3100   26.2360   14.4290 C   0  0  0  0  0  0  0  0  0  0  0  0
   27.1030   26.9630   15.3350 C   0  0  0  0  0  0  0  0  0  0  0  0
   28.4370   27.1290   15.0420 O   0  0  0  0  0  0  0  0  0  0  0  0
   29.2380   27.0390   16.2260 C   0  0  1  0  0  0  0  0  0  0  0  0
   30.6970   26.9610   15.7940 C   0  0  0  0  0  0  0  0  0  0  0  0
   28.9380   28.2430   17.1240 C   0  0  2  0  0  0  0  0  0  0  0  0
   27.4530   28.2470   17.4210 C   0  0  0  0  0  0  0  0  0  0  0  0
   26.9770   28.8550   18.3820 O   0  0  0  0  0  0  0  0  0  0  0  0
   26.5510   27.5310   16.4890 C   0  0  0  0  0  0  0  0  0  0  0  0
   25.1800   27.4160   16.7440 C   0  0  0  0  0  0  0  0  0  0  0  0
   24.3640   26.6940   15.8630 C   0  0  0  0  0  0  0  0  0  0  0  0
   24.9350   26.0950   14.7240 C   0  0  0  0  0  0  0  0  0  0  0  0
   24.1720   25.3800   13.8350 O   0  0  0  0  0  0  0  0  0  0  0  0
   22.9170   24.8430   14.2890 C   0  0  0  0  0  0  0  0  0  0  0  0
   22.0140   24.8150   13.0490 C   0  0  0  0  0  0  0  0  0  0  0  0
   23.1550   23.4100   14.7790 C   0  0  0  0  0  0  0  0  0  0  0  0
   22.2520   25.6640   15.3650 C   0  0  0  0  0  0  0  0  0  0  0  0
   22.9290   26.5480   16.1030 C   0  0  0  0  0  0  0  0  0  0  0  0
   29.3140   29.5960   16.5230 C   0  0  0  0  0  0  0  0  0  0  0  0
   24.6030   27.9970   17.8510 O   0  0  0  0  0  0  0  0  0  0  0  0
   26.9830   25.5190   13.2460 C   0  0  2  0  0  0  0  0  0  0  0  0
   26.2360   25.7530   11.9080 C   0  0  0  0  0  0  0  0  0  0  0  0
   24.7040   24.1600   10.5950 C   0  0  0  0  0  0  0  0  0  0  0  0
   26.1200   24.5060   11.0200 C   0  0  0  0  0  0  0  0  0  0  0  0
   27.1470   24.0210   13.5690 C   0  0  0  0  0  0  0  0  0  0  0  0
   28.6210   23.7150   13.8420 C   0  0  0  0  0  0  0  0  0  0  0  0
   29.3160   23.4630   12.8170 O   0  0  0  0  0  0  0  0  0  0  0  0
   28.9670   23.7320   15.0570 O   0  0  0  0  0  1  0  0  0  0  0  0
   29.0097   26.1396   16.8167 H   0  0  0  0  0  0  0  0  0  0  0  0
   31.3417   26.9265   16.6846 H   0  0  0  0  0  0  0  0  0  0  0  0
   30.8534   26.0532   15.1928 H   0  0  0  0  0  0  0  0  0  0  0  0
   30.9492   27.8469   15.1928 H   0  0  0  0  0  0  0  0  0  0  0  0
   29.5575   28.1253   18.0253 H   0  0  0  0  0  0  0  0  0  0  0  0
   20.9604   24.7823   13.3634 H   0  0  0  0  0  0  0  0  0  0  0  0
   22.1893   25.7190   12.4473 H   0  0  0  0  0  0  0  0  0  0  0  0
   22.2449   23.9236   12.4473 H   0  0  0  0  0  0  0  0  0  0  0  0
   23.1576   23.3943   15.8789 H   0  0  0  0  0  0  0  0  0  0  0  0
   22.3531   22.7566   14.4049 H   0  0  0  0  0  0  0  0  0  0  0  0
   24.1251   23.0509   14.4049 H   0  0  0  0  0  0  0  0  0  0  0  0
   21.1755   25.5307   15.5479 H   0  0  0  0  0  0  0  0  0  0  0  0
   22.4206   27.1499   16.8706 H   0  0  0  0  0  0  0  0  0  0  0  0
   29.5135   30.3139   17.3322 H   0  0  0  0  0  0  0  0  0  0  0  0
   30.2150   29.4837   15.9020 H   0  0  0  0  0  0  0  0  0  0  0  0
   28.4843   29.9647   15.9020 H   0  0  0  0  0  0  0  0  0  0  0  0
   23.6305   27.9016   18.0099 H   0  0  0  0  0  0  0  0  0  0  0  0
   27.9827   25.9555   13.1040 H   0  0  0  0  0  0  0  0  0  0  0  0
   25.2203   26.1070   12.1384 H   0  0  0  0  0  0  0  0  0  0  0  0
   26.8280   26.4874   11.3422 H   0  0  0  0  0  0  0  0  0  0  0  0
   24.0801   24.0075   11.4880 H   0  0  0  0  0  0  0  0  0  0  0  0
   24.2899   24.9834    9.9945 H   0  0  0  0  0  0  0  0  0  0  0  0
   24.7162   23.2384    9.9945 H   0  0  0  0  0  0  0  0  0  0  0  0
   26.5298   23.6499   11.5760 H   0  0  0  0  0  0  0  0  0  0  0  0
   26.6760   24.7285   10.0973 H   0  0  0  0  0  0  0  0  0  0  0  0
   26.5500   23.7704   14.4582 H   0  0  0  0  0  0  0  0  0  0  0  0
   26.8012   23.4221   12.7136 H   0  0  0  0  0  0  0  0  0  0  0  0
  2  1  2  0
  3  2  1  0
  4  3  1  0
  5  4  1  0
  6  4  1  0
  7  6  1  0
  8  7  2  0
  9  2  1  0
  9  7  1  0
 10  9  2  0
 11 10  1  0
 12 11  2  0
 12  1  1  0
 13 12  1  0
 14 13  1  0
 15 14  1  0
 16 14  1  0
 17 14  1  0
 18 17  2  0
 18 11  1  0
 19  6  1  0
 20 10  1  0
 21  1  1  0
 22 21  1  0
 24 23  1  0
 24 22  1  0
 25 21  1  0
 26 25  1  0
 27 26  2  0
 28 26  1  0
  4 29  1  1
  5 30  1  0
  5 31  1  0
  5 32  1  0
  6 33  1  1
 15 34  1  0
 15 35  1  0
 15 36  1  0
 16 37  1  0
 16 38  1  0
 16 39  1  0
 17 40  1  0
 18 41  1  0
 19 42  1  0
 19 43  1  0
 19 44  1  0
 20 45  1  0
 21 46  1  6
 22 47  1  0
 22 48  1  0
 23 49  1  0
 23 50  1  0
 23 51  1  0
 24 52  1  0
 24 53  1  0
 25 54  1  0
 25 55  1  0
M  CHG  1  28  -1
M  END
$$$$
=
     RDKit          3D

 22 21  0  0  0  0  0  0  0  0999 V2000
   16.5700   16.0740    5.5550 C   0  0  0  0  0  0  0  0  0  0  0  0
   16.6490   15.8510    6.7600 O   0  0  0  0  0  0  0  0  0  0  0  0
   17.6070   16.5180    4.7850 N   0  0  0  0  0  0  0  0  0  0  0  0
   19.0110   16.5950    5.2360 C   0  0  2  0  0  0  0  0  0  0  0  0
   19.5050   18.0340    5.2210 C   0  0  0  0  0  0  0  0  0  0  0  0
   19.9320   15.7070    4.3310 C   0  0  0  0  0  0  0  0  0  0  0  0
   21.0650   15.4580    4.8570 O   0  0  0  0  0  0  0  0  0  0  0  0
   19.4670   15.3630    3.2100 O   0  0  0  0  0  1  0  0  0  0  0  0
   15.2880   15.8810    4.7890 C   0  0  0  0  0  0  0  0  0  0  0  0
   13.9890   13.8330    3.8980 C   0  0  0  0  0  0  0  0  0  0  0  0
   15.2690   14.6290    3.9510 C   0  0  0  0  0  0  0  0  0  0  0  0
   16.2910   14.2160    3.3950 O   0  0  0  0  0  0  0  0  0  0  0  0
   17.3951   16.8200    3.8233 H   0  0  0  0  0  0  0  0  0  0  0  0
   19.0554   16.2170    6.2681 H   0  0  0  0  0  0  0  0  0  0  0  0
   19.6274   18.3905    6.2544 H   0  0  0  0  0  0  0  0  0  0  0  0
   20.4719   18.0843    4.6989 H   0  0  0  0  0  0  0  0  0  0  0  0
   18.7729   18.6676    4.6989 H   0  0  0  0  0  0  0  0  0  0  0  0
   14.4573   15.8307    5.5083 H   0  0  0  0  0  0  0  0  0  0  0  0
   15.1930   16.7325    4.0991 H   0  0  0  0  0  0  0  0  0  0  0  0
   13.6469   13.6202    4.9216 H   0  0  0  0  0  0  0  0  0  0  0  0
   13.2190   14.4118    3.3669 H   0  0  0  0  0  0  0  0  0  0  0  0
   14.1676   12.8864    3.3669 H   0  0  0  0  0  0  0  0  0  0  0  0
  2  1  2  0
  3  1  1  0
  4  3  1  0
  5  4  1  0
  6  4  1  0
  7  6  2  0
  8  6  1  0
  9  1  1  0
 11 10  1  0
 11  9  1  0
 12 11  2  0
  3 13  1  0
  4 14  1  1
  5 15  1  0
  5 16  1  0
  5 17  1  0
  9 18  1  0
  9 19  1  0
 10 20  1  0
 10 21  1  0
 10 22  1  0
M  CHG  1   8  -1
M  END
$$$$
=
     RDKit          3D

 41 42  0  0  0  0  0  0  0  0999 V2000
   28.2610   28.3660   16.4000 C   0  0  1  0  0  0  0  0  0  0  0  0
   28.7400   27.0690   15.6980 C   0  0  0  0  0  0  0  0  0  0  0  0
   28.8720   27.0450   14.2940 C   0  0  0  0  0  0  0  0  0  0  0  0
   29.3210   25.9040   13.6260 C   0  0  0  0  0  0  0  0  0  0  0  0
   29.6530   24.7610   14.3480 C   0  0  0  0  0  0  0  0  0  0  0  0
   29.5400   24.7640   15.7350 C   0  0  0  0  0  0  0  0  0  0  0  0
   29.0910   25.9060   16.4050 C   0  0  0  0  0  0  0  0  0  0  0  0
   26.7950   28.4810   16.0880 N   0  0  0  0  0  0  0  0  0  0  0  0
   25.9320   27.4370   16.2240 C   0  0  0  0  0  0  0  0  0  0  0  0
   25.9970   26.5210   17.0290 O   0  0  0  0  0  0  0  0  0  0  0  0
   24.9370   27.5830   15.3130 O   0  0  0  0  0  0  0  0  0  0  0  0
   24.2740   26.3600   14.9960 C   0  0  0  0  0  0  0  0  0  0  0  0
   25.0820   25.6240   13.9540 C   0  0  0  0  0  0  0  0  0  0  0  0
   25.3570   26.2070   12.7100 C   0  0  0  0  0  0  0  0  0  0  0  0
   26.0850   25.5060   11.7440 C   0  0  0  0  0  0  0  0  0  0  0  0
   26.5400   24.2160   12.0120 C   0  0  0  0  0  0  0  0  0  0  0  0
   26.2670   23.6230   13.2440 C   0  0  0  0  0  0  0  0  0  0  0  0
   25.5390   24.3210   14.2090 C   0  0  0  0  0  0  0  0  0  0  0  0
   28.4110   28.2290   17.9950 C   0  0  0  0  0  0  0  0  0  0  0  0
   27.4380   28.7240   18.6530 O   0  0  0  0  0  0  0  0  0  0  0  0
   29.4410   27.6470   18.4370 O   0  0  0  0  0  1  0  0  0  0  0  0
   30.5710   29.5430   15.9860 C   0  0  0  0  0  0  0  0  0  0  0  0
   29.0490   29.5880   15.8520 C   0  0  0  0  0  0  0  0  0  0  0  0
   28.6160   27.9435   13.7134 H   0  0  0  0  0  0  0  0  0  0  0  0
   29.4123   25.9083   12.5298 H   0  0  0  0  0  0  0  0  0  0  0  0
   30.0032   23.8593   13.8243 H   0  0  0  0  0  0  0  0  0  0  0  0
   29.8054   23.8629   16.3074 H   0  0  0  0  0  0  0  0  0  0  0  0
   29.0112   25.8942   17.5020 H   0  0  0  0  0  0  0  0  0  0  0  0
   26.4290   29.3855   15.7583 H   0  0  0  0  0  0  0  0  0  0  0  0
   24.1870   25.7412   15.9013 H   0  0  0  0  0  0  0  0  0  0  0  0
   23.2667   26.5709   14.6075 H   0  0  0  0  0  0  0  0  0  0  0  0
   24.9976   27.2235   12.4918 H   0  0  0  0  0  0  0  0  0  0  0  0
   26.2990   25.9730   10.7713 H   0  0  0  0  0  0  0  0  0  0  0  0
   27.1142   23.6661   11.2518 H   0  0  0  0  0  0  0  0  0  0  0  0
   26.6254   22.6048   13.4556 H   0  0  0  0  0  0  0  0  0  0  0  0
   25.3215   23.8464   15.1772 H   0  0  0  0  0  0  0  0  0  0  0  0
   30.8452   29.5349   17.0512 H   0  0  0  0  0  0  0  0  0  0  0  0
   30.9550   28.6331   15.5016 H   0  0  0  0  0  0  0  0  0  0  0  0
   31.0081   30.4286   15.5016 H   0  0  0  0  0  0  0  0  0  0  0  0
   28.6940   30.4805   16.3881 H   0  0  0  0  0  0  0  0  0  0  0  0
   28.8554   29.5932   14.7692 H   0  0  0  0  0  0  0  0  0  0  0  0
  2  1  1  0
  3  2  2  0
  4  3  1  0
  5  4  2  0
  6  5  1  0
  7  6  2  0
  7  2  1  0
  8  1  1  0
  9  8  1  0
 10  9  2  0
 11  9  1  0
 12 11  1  0
 13 12  1  0
 14 13  2  0
 15 14  1  0
 16 15  2  0
 17 16  1  0
 18 17  2  0
 18 13  1  0
  1 19  1  1
 20 19  2  0
 21 19  1  0
 23 22  1  0
 23  1  1  0
  3 24  1  0
  4 25  1  0
  5 26  1  0
  6 27  1  0
  7 28  1  0
  8 29  1  0
 12 30  1  0
 12 31  1  0
 14 32  1  0
 15 33  1  0
 16 34  1  0
 17 35  1  0
 18 36  1  0
 22 37  1  0
 22 38  1  0
 22 39  1  0
 23 40  1  0
 23 41  1  0
M  CHG  1  21  -1
M  END
$$$$
=
     RDKit          3D

 24 24  0  0  0  0  0  0  0  0999 V2000
   20.6640   16.6620    4.9540 C   0  0  0  0  0  0  0  0  0  0  0  0
   21.5880   16.7260    6.0230 C   0  0  0  0  0  0  0  0  0  0  0  0
   22.6560   17.6240    6.0330 C   0  0  0  0  0  0  0  0  0  0  0  0
   22.8430   18.4860    4.9670 C   0  0  0  0  0  0  0  0  0  0  0  0
   21.9680   18.4330    3.8850 C   0  0  0  0  0  0  0  0  0  0  0  0
   20.8840   17.5210    3.8430 C   0  0  0  0  0  0  0  0  0  0  0  0
   20.0220   17.5400    2.5890 C   0  0  0  0  0  0  0  0  0  0  0  0
   19.6290   16.3200    2.1300 F   0  0  0  0  0  0  0  0  0  0  0  0
   20.7150   18.0670    1.5180 F   0  0  0  0  0  0  0  0  0  0  0  0
   18.9170   18.3340    2.6740 F   0  0  0  0  0  0  0  0  0  0  0  0
   19.5160   15.6500    5.0290 C   0  0  1  0  0  0  0  0  0  0  0  0
   19.5770   14.8480    6.3280 C   0  0  0  0  0  0  0  0  0  0  0  0
   17.8140   17.3120    5.6200 O   0  0  0  0  0  1  0  0  0  0  0  0
   18.0680   16.2970    4.9130 C   0  0  0  0  0  0  0  0  0  0  0  0
   17.3040   15.6520    4.1210 O   0  0  0  0  0  0  0  0  0  0  0  0
   19.6400   14.7260    3.9210 O   0  0  0  0  0  0  0  0  0  0  0  0
   21.4602   16.0439    6.8765 H   0  0  0  0  0  0  0  0  0  0  0  0
   23.3485   17.6466    6.8874 H   0  0  0  0  0  0  0  0  0  0  0  0
   23.6746   19.2060    4.9741 H   0  0  0  0  0  0  0  0  0  0  0  0
   22.1226   19.1185    3.0388 H   0  0  0  0  0  0  0  0  0  0  0  0
   19.5248   15.5347    7.1857 H   0  0  0  0  0  0  0  0  0  0  0  0
   18.7295   14.1478    6.3668 H   0  0  0  0  0  0  0  0  0  0  0  0
   20.5206   14.2840    6.3668 H   0  0  0  0  0  0  0  0  0  0  0  0
   19.7633   13.8076    4.2694 H   0  0  0  0  0  0  0  0  0  0  0  0
  2  1  2  0
  3  2  1  0
  4  3  2  0
  5  4  1  0
  6  1  1  0
  6  5  2  0
  7  6  1  0
  8  7  1  0
  9  7  1  0
 10  7  1  0
 11  1  1  0
 12 11  1  0
 14 11  1  0
 14 13  1  0
 15 14  2  0
 11 16  1  6
  2 17  1  0
  3 18  1  0
  4 19  1  0
  5 20  1  0
 12 21  1  0
 12 22  1  0
 12 23  1  0
 16 24  1  0
M  CHG  1  13  -1
M  END
$$$$
=
     RDKit          3D

 22 22  0  0  0  0  0  0  0  0999 V2000
   18.0280   17.8320    5.8980 Br  0  0  0  0  0  0  0  0  0  0  0  0
   17.4740   16.0160    5.3400 C   0  0  1  0  0  0  0  0  0  0  0  0
   15.9630   16.0450    5.1380 C   0  0  0  0  0  0  0  0  0  0  0  0
   15.4200   14.7030    4.6120 C   0  0  2  0  0  0  0  0  0  0  0  0
   16.1620   14.2580    3.3390 C   0  0  1  0  0  0  0  0  0  0  0  0
   17.6860   14.2590    3.5480 C   0  0  0  0  0  0  0  0  0  0  0  0
   18.1970   15.5990    4.0650 C   0  0  2  0  0  0  0  0  0  0  0  0
   20.1390   15.4030    4.3940 Br  0  0  0  0  0  0  0  0  0  0  0  0
   13.9120   15.0050    4.4620 C   0  0  0  0  0  0  0  0  0  0  0  0
   13.1410   14.0810    4.8660 O   0  0  0  0  0  0  0  0  0  0  0  0
   13.6020   16.1690    4.0780 O   0  0  0  0  0  1  0  0  0  0  0  0
   15.9040   12.8110    2.8620 C   0  0  0  0  0  0  0  0  0  0  0  0
   16.8960   12.0280    2.8630 O   0  0  0  0  0  0  0  0  0  0  0  0
   14.7400   12.6030    2.3960 O   0  0  0  0  0  1  0  0  0  0  0  0
   17.7386   15.2746    6.1084 H   0  0  0  0  0  0  0  0  0  0  0  0
   15.4812   16.2689    6.1012 H   0  0  0  0  0  0  0  0  0  0  0  0
   15.7375   16.8175    4.3881 H   0  0  0  0  0  0  0  0  0  0  0  0
   15.5783   13.8319    5.2647 H   0  0  0  0  0  0  0  0  0  0  0  0
   15.7790   14.9829    2.6056 H   0  0  0  0  0  0  0  0  0  0  0  0
   17.9438   13.4767    4.2771 H   0  0  0  0  0  0  0  0  0  0  0  0
   18.1600   14.0709    2.5733 H   0  0  0  0  0  0  0  0  0  0  0  0
   18.0051   16.3873    3.3222 H   0  0  0  0  0  0  0  0  0  0  0  0
  2  1  1  0
  3  2  1  0
  4  3  1  0
  5  4  1  0
  6  5  1  0
  7  6  1  0
  7  2  1  0
  8  7  1  0
  9  4  1  0
 10  9  2  0
 11  9  1  0
 12  5  1  0
 13 12  2  0
 14 12  1  0
  2 15  1  1
  3 16  1  0
  3 17  1  0
  4 18  1  1
  5 19  1  6
  6 20  1  0
  6 21  1  0
  7 22  1  6
M  CHG  2  11  -1  14  -1
M  END
$$$$
=
     RDKit          3D

 26 27  0  0  0  0  0  0  0  0999 V2000
   20.7410   17.6340    5.6070 C   0  0  1  0  0  0  0  0  0  0  0  0
   19.2270   18.0040    5.5760 C   0  0  0  0  0  0  0  0  0  0  0  0
   18.5820   19.0140    5.7670 O   0  0  0  0  0  0  0  0  0  0  0  0
   18.8980   16.7600    5.1540 N   0  0  0  0  0  0  0  0  0  0  0  0
   20.2550   16.1880    5.3000 C   0  0  2  0  0  0  0  0  0  0  0  0
   17.6810   16.1400    4.8780 C   0  0  0  0  0  0  0  0  0  0  0  0
   17.4410   15.5690    3.6220 C   0  0  0  0  0  0  0  0  0  0  0  0
   16.2180   14.9490    3.3350 C   0  0  0  0  0  0  0  0  0  0  0  0
   15.2200   14.8880    4.3050 C   0  0  0  0  0  0  0  0  0  0  0  0
   15.4490   15.4400    5.5610 C   0  0  0  0  0  0  0  0  0  0  0  0
   16.6700   16.0560    5.8410 C   0  0  0  0  0  0  0  0  0  0  0  0
   16.8550   16.5250    7.0830 F   0  0  0  0  0  0  0  0  0  0  0  0
   20.5140   15.2600    6.4820 C   0  0  0  0  0  0  0  0  0  0  0  0
   19.8300   14.1910    6.5480 O   0  0  0  0  0  0  0  0  0  0  0  0
   21.4290   15.5960    7.3020 O   0  0  0  0  0  1  0  0  0  0  0  0
   22.9430   18.3490    4.8740 C   0  0  0  0  0  0  0  0  0  0  0  0
   21.5540   18.2880    4.5870 O   0  0  0  0  0  0  0  0  0  0  0  0
   21.4100   17.8585    6.4508 H   0  0  0  0  0  0  0  0  0  0  0  0
   20.6518   15.5425    4.5026 H   0  0  0  0  0  0  0  0  0  0  0  0
   18.2237   15.6079    2.8501 H   0  0  0  0  0  0  0  0  0  0  0  0
   16.0454   14.5094    2.3416 H   0  0  0  0  0  0  0  0  0  0  0  0
   14.2572   14.4064    4.0791 H   0  0  0  0  0  0  0  0  0  0  0  0
   14.6678   15.3911    6.3338 H   0  0  0  0  0  0  0  0  0  0  0  0
   23.0923   18.3556    5.9638 H   0  0  0  0  0  0  0  0  0  0  0  0
   23.4459   17.4721    4.4403 H   0  0  0  0  0  0  0  0  0  0  0  0
   23.3671   19.2666    4.4403 H   0  0  0  0  0  0  0  0  0  0  0  0
  2  1  1  0
  3  2  2  0
  4  2  1  0
  5  4  1  0
  5  1  1  0
  6  4  1  0
  7  6  2  0
  8  7  1  0
  9  8  2  0
 10  9  1  0
 11 10  2  0
 11  6  1  0
 12 11  1  0
 13  5  1  0
 14 13  2  0
 15 13  1  0
 17  1  1  0
 17 16  1  0
  1 18  1  1
  5 19  1  6
  7 20  1  0
  8 21  1  0
  9 22  1  0
 10 23  1  0
 16 24  1  0
 16 25  1  0
 16 26  1  0
M  CHG  1  15  -1
M  END
$$$$
=
     RDKit          3D

 16 16  0  0  0  0  0  0  0  0999 V2000
   16.7640   16.1990    5.4520 C   0  0  0  0  0  0  0  0  0  0  0  0
   17.9540   16.1070    4.5730 C   0  0  0  0  0  0  0  0  0  0  0  0
   18.4310   15.0180    4.0740 N   0  0  0  0  0  0  0  0  0  0  0  0
   19.5660   15.4230    3.3340 O   0  0  0  0  0  0  0  0  0  0  0  0
   19.6620   16.8560    3.4970 C   0  0  2  0  0  0  0  0  0  0  0  0
   18.5130   17.2810    4.2340 O   0  0  0  0  0  0  0  0  0  0  0  0
   19.6100   17.4910    2.1160 C   0  0  0  0  0  0  0  0  0  0  0  0
   20.9770   17.1990    4.2940 C   0  0  0  0  0  0  0  0  0  0  0  0
   21.3490   18.4130    4.2610 O   0  0  0  0  0  0  0  0  0  0  0  0
   21.5270   16.2340    4.9130 O   0  0  0  0  0  1  0  0  0  0  0  0
   17.0828   16.1744    6.5045 H   0  0  0  0  0  0  0  0  0  0  0  0
   16.2323   17.1409    5.2519 H   0  0  0  0  0  0  0  0  0  0  0  0
   16.0938   15.3500    5.2519 H   0  0  0  0  0  0  0  0  0  0  0  0
   19.5206   18.5827    2.2175 H   0  0  0  0  0  0  0  0  0  0  0  0
   20.5310   17.2481    1.5658 H   0  0  0  0  0  0  0  0  0  0  0  0
   18.7407   17.1015    1.5658 H   0  0  0  0  0  0  0  0  0  0  0  0
  2  1  1  0
  3  2  2  0
  4  3  1  0
  5  4  1  0
  6  2  1  0
  6  5  1  0
  7  5  1  0
  5  8  1  1
  9  8  2  0
 10  8  1  0
  1 11  1  0
  1 12  1  0
  1 13  1  0
  7 14  1  0
  7 15  1  0
  7 16  1  0
M  CHG  1  10  -1
M  END
$$$$
=
     RDKit          3D

 39 39  0  0  0  0  0  0  0  0999 V2000
   16.5660   15.9890    4.9310 C   0  0  0  0  0  0  0  0  0  0  0  0
   15.1750   15.9400    4.7820 C   0  0  0  0  0  0  0  0  0  0  0  0
   14.5590   14.9160    4.0560 C   0  0  0  0  0  0  0  0  0  0  0  0
   15.3510   13.9460    3.4340 C   0  0  0  0  0  0  0  0  0  0  0  0
   16.7430   14.0080    3.5620 C   0  0  0  0  0  0  0  0  0  0  0  0
   17.3560   15.0220    4.3080 C   0  0  0  0  0  0  0  0  0  0  0  0
   13.1660   14.8010    3.9050 N   0  0  0  0  0  0  0  0  0  0  0  0
   12.3840   13.6620    3.9900 C   0  0  0  0  0  0  0  0  0  0  0  0
   12.7940   12.5240    4.2180 O   0  0  0  0  0  0  0  0  0  0  0  0
   10.8810   13.9430    3.7780 C   0  0  0  0  0  0  0  0  0  0  0  0
   10.1840   14.6840    4.7660 O   0  0  0  0  0  0  0  0  0  0  0  0
    8.9900   14.0490    5.2790 C   0  0  0  0  0  0  0  0  0  0  0  0
    9.2220   13.2290    6.5710 C   0  0  0  0  0  0  0  0  0  0  0  0
   10.2240   13.5430    7.2670 O   0  0  0  0  0  0  0  0  0  0  0  0
    8.3610   12.3120    6.7660 O   0  0  0  0  0  1  0  0  0  0  0  0
   17.5780   12.9990    2.9090 N   0  0  0  0  0  4  0  0  0  0  0  0
   18.8050   13.0790    3.0470 O   0  0  0  0  0  0  0  0  0  0  0  0
   17.0010   12.1070    2.2670 O   0  0  0  0  0  1  0  0  0  0  0  0
   17.3690   17.2830    5.8670 S   0  0  0  0  0  0  0  0  0  0  0  0
   19.1140   16.9940    5.3980 C   0  0  0  0  0  0  0  0  0  0  0  0
   19.9370   18.2870    5.2610 C   0  0  1  0  0  0  0  0  0  0  0  0
   19.3750   19.2760    6.1360 O   0  0  0  0  0  0  0  0  0  0  0  0
   21.4200   18.1150    5.6320 C   0  0  0  0  0  0  0  0  0  0  0  0
   22.2180   19.2300    5.2510 O   0  0  0  0  0  0  0  0  0  0  0  0
   14.5548   16.7218    5.2448 H   0  0  0  0  0  0  0  0  0  0  0  0
   14.8835   13.1405    2.8487 H   0  0  0  0  0  0  0  0  0  0  0  0
   18.4514   15.0561    4.4022 H   0  0  0  0  0  0  0  0  0  0  0  0
   12.6625   15.6771    3.7054 H   0  0  0  0  0  0  0  0  0  0  0  0
   10.7844   14.4940    2.8309 H   0  0  0  0  0  0  0  0  0  0  0  0
   10.4144   12.9474    3.8099 H   0  0  0  0  0  0  0  0  0  0  0  0
    8.2468   14.8310    5.4938 H   0  0  0  0  0  0  0  0  0  0  0  0
    8.6482   13.3419    4.5089 H   0  0  0  0  0  0  0  0  0  0  0  0
   19.5816   16.3641    6.1691 H   0  0  0  0  0  0  0  0  0  0  0  0
   19.1068   16.5099    4.4103 H   0  0  0  0  0  0  0  0  0  0  0  0
   19.8947   18.5831    4.2025 H   0  0  0  0  0  0  0  0  0  0  0  0
   19.5269   19.0086    7.0770 H   0  0  0  0  0  0  0  0  0  0  0  0
   21.4966   17.9842    6.7215 H   0  0  0  0  0  0  0  0  0  0  0  0
   21.7973   17.2369    5.0874 H   0  0  0  0  0  0  0  0  0  0  0  0
   22.5485   19.6918    6.0620 H   0  0  0  0  0  0  0  0  0  0  0  0
  2  1  2  0
  3  2  1  0
  4  3  2  0
  5  4  1  0
  6  5  2  0
  6  1  1  0
  7  3  1  0
  8  7  1  0
  9  8  2  0
 10  8  1  0
 11 10  1  0
 12 11  1  0
 13 12  1  0
 14 13  2  0
 15 13  1  0
 16  5  1  0
 17 16  2  0
 18 16  1  0
 19  1  1  0
 20 19  1  0
 21 20  1  0
 22 21  1  0
 23 21  1  0
 24 23  1  0
  2 25  1  0
  4 26  1  0
  6 27  1  0
  7 28  1  0
 10 29  1  0
 10 30  1  0
 12 31  1  0
 12 32  1  0
 20 33  1  0
 20 34  1  0
 21 35  1  6
 22 36  1  0
 23 37  1  0
 23 38  1  0
 24 39  1  0
M  CHG  3  15  -1  16   1  18  -1
M  END
$$$$
=
     RDKit          3D

 42 45  0  0  0  0  0  0  0  0999 V2000
   28.2810   25.2230   14.0790 C   0  0  1  0  0  0  0  0  0  0  0  0
   28.1270   25.7750   15.5020 C   0  0  0  0  0  0  0  0  0  0  0  0
   28.7870   27.1130   15.7250 C   0  0  0  0  0  0  0  0  0  0  0  0
   29.3880   27.4280   16.9470 C   0  0  0  0  0  0  0  0  0  0  0  0
   29.9470   28.6910   17.1450 C   0  0  0  0  0  0  0  0  0  0  0  0
   29.8950   29.6460   16.1310 C   0  0  0  0  0  0  0  0  0  0  0  0
   29.2870   29.3430   14.9130 C   0  0  0  0  0  0  0  0  0  0  0  0
   28.7350   28.0740   14.7020 C   0  0  0  0  0  0  0  0  0  0  0  0
   28.0600   27.7100   13.4140 C   0  0  0  0  0  0  0  0  0  0  0  0
   28.4020   26.3340   12.9900 N   0  0  2  0  0  4  0  0  0  0  0  0
   30.5110   24.6090   14.7510 O   0  0  0  0  0  1  0  0  0  0  0  0
   29.5470   24.3100   14.0140 C   0  0  0  0  0  0  0  0  0  0  0  0
   29.3340   23.3290   13.2250 O   0  0  0  0  0  0  0  0  0  0  0  0
   27.9020   25.8700   11.6600 C   0  0  0  0  0  0  0  0  0  0  0  0
   26.5000   25.3630   11.6720 C   0  0  0  0  0  0  0  0  0  0  0  0
   25.4460   26.1100   12.1560 C   0  0  0  0  0  0  0  0  0  0  0  0
   24.1680   25.6920   12.1540 N   0  0  0  0  0  0  0  0  0  0  0  0
   23.9470   24.4590   11.6600 C   0  0  0  0  0  0  0  0  0  0  0  0
   24.8980   23.6420   11.1710 N   0  0  0  0  0  0  0  0  0  0  0  0
   26.1610   24.1120   11.1920 C   0  0  0  0  0  0  0  0  0  0  0  0
   22.5820   23.9590   11.6340 C   0  0  0  0  0  0  0  0  0  0  0  0
   21.7630   23.3790   12.5870 C   0  0  0  0  0  0  0  0  0  0  0  0
   20.5280   23.1020   11.9530 C   0  0  0  0  0  0  0  0  0  0  0  0
   20.6650   23.5260   10.6520 C   0  0  0  0  0  0  0  0  0  0  0  0
   21.9020   24.0450   10.4470 O   0  0  0  0  0  0  0  0  0  0  0  0
   27.3644   24.6557   13.8601 H   0  0  0  0  0  0  0  0  0  0  0  0
   27.0532   25.8809   15.7158 H   0  0  0  0  0  0  0  0  0  0  0  0
   28.6287   25.0614   16.1721 H   0  0  0  0  0  0  0  0  0  0  0  0
   29.4203   26.6800   17.7528 H   0  0  0  0  0  0  0  0  0  0  0  0
   30.4297   28.9335   18.1032 H   0  0  0  0  0  0  0  0  0  0  0  0
   30.3347   30.6414   16.2919 H   0  0  0  0  0  0  0  0  0  0  0  0
   29.2412   30.1016   14.1177 H   0  0  0  0  0  0  0  0  0  0  0  0
   26.9707   27.7816   13.5491 H   0  0  0  0  0  0  0  0  0  0  0  0
   28.4057   28.4060   12.6355 H   0  0  0  0  0  0  0  0  0  0  0  0
   29.4108   26.4793   12.8416 H   0  0  0  0  0  0  0  0  0  0  0  0
   27.9562   26.7152   10.9581 H   0  0  0  0  0  0  0  0  0  0  0  0
   28.5393   25.0242   11.3626 H   0  0  0  0  0  0  0  0  0  0  0  0
   25.6640   27.1064   12.5679 H   0  0  0  0  0  0  0  0  0  0  0  0
   26.9640   23.4662   10.8070 H   0  0  0  0  0  0  0  0  0  0  0  0
   22.0220   23.1728   13.6360 H   0  0  0  0  0  0  0  0  0  0  0  0
   19.6391   22.6411   12.4086 H   0  0  0  0  0  0  0  0  0  0  0  0
   19.8807   23.4544    9.8841 H   0  0  0  0  0  0  0  0  0  0  0  0
  2  1  1  0
  3  2  1  0
  4  3  1  0
  5  4  2  0
  6  5  1  0
  7  6  2  0
  8  3  2  0
  8  7  1  0
  9  8  1  0
 10  1  1  0
 10  9  1  0
 12 11  1  0
 12  1  1  0
 13 12  2  0
 14 10  1  0
 15 14  1  0
 16 15  2  0
 17 16  1  0
 18 17  2  0
 19 18  1  0
 20 19  2  0
 20 15  1  0
 21 18  1  0
 22 21  2  0
 23 22  1  0
 24 23  2  0
 25 24  1  0
 25 21  1  0
  1 26  1  6
  2 27  1  0
  2 28  1  0
  4 29  1  0
  5 30  1  0
  6 31  1  0
  7 32  1  0
  9 33  1  0
  9 34  1  0
 10 35  1  6
 14 36  1  0
 14 37  1  0
 16 38  1  0
 20 39  1  0
 22 40  1  0
 23 41  1  0
 24 42  1  0
M  CHG  2  10   1  11  -1
M  END
$$$$
=
     RDKit          3D

 29 30  0  0  0  0  0  0  0  0999 V2000
   19.2460   17.0490    1.9360 O   0  0  0  0  0  0  0  0  0  0  0  0
   19.1770   17.1370    3.1570 C   0  0  0  0  0  0  0  0  0  0  0  0
   20.0470   17.8530    3.9270 N   0  0  0  0  0  0  0  0  0  0  0  0
   21.4170   18.2230    3.5840 C   0  0  0  0  0  0  0  0  0  0  0  0
   21.5900   18.5580    5.0740 C   0  0  0  0  0  0  0  0  0  0  0  0
   20.3720   17.6610    5.3380 C   0  0  0  0  0  0  0  0  0  0  0  0
   22.8720   18.0980    5.6950 C   0  0  0  0  0  0  0  0  0  0  0  0
   22.8010   17.1540    6.5420 O   0  0  0  0  0  0  0  0  0  0  0  0
   23.9400   18.6710    5.3150 O   0  0  0  0  0  1  0  0  0  0  0  0
   18.2190   16.5430    3.9180 O   0  0  0  0  0  0  0  0  0  0  0  0
   18.0860   15.1300    3.7600 C   0  0  0  0  0  0  0  0  0  0  0  0
   16.6310   14.7400    3.8320 C   0  0  0  0  0  0  0  0  0  0  0  0
   15.7390   15.4750    4.6240 C   0  0  0  0  0  0  0  0  0  0  0  0
   14.3950   15.1050    4.7050 C   0  0  0  0  0  0  0  0  0  0  0  0
   13.9330   13.9930    4.0030 C   0  0  0  0  0  0  0  0  0  0  0  0
   14.8160   13.2460    3.2240 C   0  0  0  0  0  0  0  0  0  0  0  0
   16.1600   13.6140    3.1430 C   0  0  0  0  0  0  0  0  0  0  0  0
   22.0433   17.3957    3.2188 H   0  0  0  0  0  0  0  0  0  0  0  0
   21.6515   18.9431    2.7863 H   0  0  0  0  0  0  0  0  0  0  0  0
   21.6362   19.5970    5.4324 H   0  0  0  0  0  0  0  0  0  0  0  0
   20.6114   16.6256    5.6220 H   0  0  0  0  0  0  0  0  0  0  0  0
   19.6509   17.8674    6.1427 H   0  0  0  0  0  0  0  0  0  0  0  0
   18.4955   14.8321    2.7835 H   0  0  0  0  0  0  0  0  0  0  0  0
   18.6373   14.6222    4.5651 H   0  0  0  0  0  0  0  0  0  0  0  0
   16.0998   16.3493    5.1857 H   0  0  0  0  0  0  0  0  0  0  0  0
   13.7000   15.6918    5.3236 H   0  0  0  0  0  0  0  0  0  0  0  0
   12.8731   13.7050    4.0634 H   0  0  0  0  0  0  0  0  0  0  0  0
   14.4531   12.3659    2.6728 H   0  0  0  0  0  0  0  0  0  0  0  0
   16.8543   13.0162    2.5342 H   0  0  0  0  0  0  0  0  0  0  0  0
  2  1  2  0
  3  2  1  0
  4  3  1  0
  5  4  1  0
  6  5  1  0
  6  3  1  0
  7  5  1  0
  8  7  2  0
  9  7  1  0
 10  2  1  0
 11 10  1  0
 12 11  1  0
 13 12  2  0
 14 13  1  0
 15 14  2  0
 16 15  1  0
 17 16  2  0
 17 12  1  0
  4 18  1  0
  4 19  1  0
  5 20  1  0
  6 21  1  0
  6 22  1  0
 11 23  1  0
 11 24  1  0
 13 25  1  0
 14 26  1  0
 15 27  1  0
 16 28  1  0
 17 29  1  0
M  CHG  1   9  -1
M  END
$$$$
=
     RDKit          3D

 25 27  0  0  0  0  0  0  0  0999 V2000
   15.3940   13.9920    3.6970 C   0  0  0  0  0  0  0  0  0  0  0  0
   14.6980   14.9740    4.4260 C   0  0  0  0  0  0  0  0  0  0  0  0
   15.3640   16.0710    4.9770 C   0  0  0  0  0  0  0  0  0  0  0  0
   16.7410   16.2050    4.8060 C   0  0  0  0  0  0  0  0  0  0  0  0
   17.4460   15.2400    4.0860 C   0  0  0  0  0  0  0  0  0  0  0  0
   16.7830   14.1400    3.5330 C   0  0  0  0  0  0  0  0  0  0  0  0
   18.9000   15.4120    3.9260 C   0  0  0  0  0  0  0  0  0  0  0  0
   19.6010   14.6190    3.3130 O   0  0  0  0  0  0  0  0  0  0  0  0
   19.4970   16.6040    4.5480 C   0  0  0  0  0  0  0  0  0  0  0  0
   18.6700   17.4850    5.2380 C   0  0  0  0  0  0  0  0  0  0  0  0
   17.3170   17.3120    5.3800 O   0  0  0  0  0  0  0  0  0  0  0  0
   19.2370   18.6140    5.8270 C   0  0  0  0  0  0  0  0  0  0  0  0
   18.4680   19.4820    6.5000 F   0  0  0  0  0  0  0  0  0  0  0  0
   20.6050   18.8680    5.7330 C   0  0  0  0  0  0  0  0  0  0  0  0
   21.4280   17.9810    5.0390 C   0  0  0  0  0  0  0  0  0  0  0  0
   20.8740   16.8460    4.4450 C   0  0  0  0  0  0  0  0  0  0  0  0
   15.3440   11.9960    2.4050 O   0  0  0  0  0  1  0  0  0  0  0  0
   14.6580   12.8060    3.1040 C   0  0  0  0  0  0  0  0  0  0  0  0
   13.4170   12.7130    3.3520 O   0  0  0  0  0  0  0  0  0  0  0  0
   13.6111   14.8760    4.5642 H   0  0  0  0  0  0  0  0  0  0  0  0
   14.8030   16.8279    5.5449 H   0  0  0  0  0  0  0  0  0  0  0  0
   17.3506   13.3867    2.9669 H   0  0  0  0  0  0  0  0  0  0  0  0
   21.0335   19.7647    6.2045 H   0  0  0  0  0  0  0  0  0  0  0  0
   22.5079   18.1750    4.9603 H   0  0  0  0  0  0  0  0  0  0  0  0
   21.5172   16.1421    3.8966 H   0  0  0  0  0  0  0  0  0  0  0  0
  2  1  2  0
  3  2  1  0
  4  3  2  0
  5  4  1  0
  6  1  1  0
  6  5  2  0
  7  5  1  0
  8  7  2  0
  9  7  1  0
 10  9  2  0
 11  4  1  0
 11 10  1  0
 12 10  1  0
 13 12  1  0
 14 12  2  0
 15 14  1  0
 16 15  2  0
 16  9  1  0
 18 17  1  0
 18  1  1  0
 19 18  2  0
  2 20  1  0
  3 21  1  0
  6 22  1  0
 14 23  1  0
 15 24  1  0
 16 25  1  0
M  CHG  1  17  -1
M  END
$$$$
=
     RDKit          3D

 32 33  0  0  0  0  0  0  0  0999 V2000
   26.3740   27.5790   15.4530 N   0  0  1  0  0  4  0  0  0  0  0  0
   26.8650   29.1290   15.7270 C   0  0  0  0  0  0  0  0  0  0  0  0
   28.3560   28.9790   15.8580 C   0  0  2  0  0  0  0  0  0  0  0  0
   29.7420   29.5950   16.0140 C   0  0  0  0  0  0  0  0  0  0  0  0
   30.6770   28.3090   16.0150 C   0  0  0  0  0  0  0  0  0  0  0  0
   30.2370   27.0740   15.5930 C   0  0  0  0  0  0  0  0  0  0  0  0
   28.8860   26.8490   14.8050 C   0  0  1  0  0  0  0  0  0  0  0  0
   27.4390   26.3600   15.2420 C   0  0  0  0  0  0  0  0  0  0  0  0
   28.6040   28.2570   14.4670 C   0  0  0  0  0  0  0  0  0  0  0  0
   29.2360   26.0100   13.5880 N   0  0  0  0  0  4  0  0  0  0  0  0
   29.8810   24.9770   13.8060 O   0  0  0  0  0  0  0  0  0  0  0  0
   28.8390   26.3860   12.4790 O   0  0  0  0  0  1  0  0  0  0  0  0
   28.2740   28.3700   17.3520 N   0  0  0  0  0  4  0  0  0  0  0  0
   28.3150   29.2160   18.2580 O   0  0  0  0  0  0  0  0  0  0  0  0
   28.1580   27.1570   17.5540 O   0  0  0  0  0  1  0  0  0  0  0  0
   25.1350   27.1990   16.3120 C   0  0  0  0  0  0  0  0  0  0  0  0
   23.4000   27.4780   14.8040 O   0  0  0  0  0  1  0  0  0  0  0  0
   24.0570   26.5570   15.3950 C   0  0  0  0  0  0  0  0  0  0  0  0
   23.9650   25.3130   15.3980 O   0  0  0  0  0  0  0  0  0  0  0  0
   26.1156   27.6651   14.4597 H   0  0  0  0  0  0  0  0  0  0  0  0
   26.6039   29.7840   14.8827 H   0  0  0  0  0  0  0  0  0  0  0  0
   26.3915   29.5904   16.6061 H   0  0  0  0  0  0  0  0  0  0  0  0
   29.9802   30.2617   15.1721 H   0  0  0  0  0  0  0  0  0  0  0  0
   29.8500   30.2226   16.9109 H   0  0  0  0  0  0  0  0  0  0  0  0
   31.7146   28.4095   16.3660 H   0  0  0  0  0  0  0  0  0  0  0  0
   30.8605   26.1958   15.8169 H   0  0  0  0  0  0  0  0  0  0  0  0
   27.5295   25.8091   16.1898 H   0  0  0  0  0  0  0  0  0  0  0  0
   27.0515   25.7301   14.4277 H   0  0  0  0  0  0  0  0  0  0  0  0
   29.4618   28.7077   13.9463 H   0  0  0  0  0  0  0  0  0  0  0  0
   27.7384   28.3523   13.7950 H   0  0  0  0  0  0  0  0  0  0  0  0
   25.4325   26.4801   17.0896 H   0  0  0  0  0  0  0  0  0  0  0  0
   24.7251   28.1010   16.7899 H   0  0  0  0  0  0  0  0  0  0  0  0
  2  1  1  0
  3  2  1  0
  4  3  1  0
  5  4  1  0
  6  5  2  0
  7  6  1  0
  8  1  1  0
  8  7  1  0
  9  7  1  0
  9  3  1  0
  7 10  1  6
 11 10  2  0
 12 10  1  0
  3 13  1  1
 14 13  2  0
 15 13  1  0
 16  1  1  0
 18 16  1  0
 18 17  1  0
 19 18  2  0
  1 20  1  6
  2 21  1  0
  2 22  1  0
  4 23  1  0
  4 24  1  0
  5 25  1  0
  6 26  1  0
  8 27  1  0
  8 28  1  0
  9 29  1  0
  9 30  1  0
 16 31  1  0
 16 32  1  0
M  CHG  6   1   1  10   1  12  -1  13   1  15  -1  17  -1
M  END
$$$$
=
     RDKit          3D

 36 37  0  0  0  0  0  0  0  0999 V2000
   20.0410   18.3090    4.6390 C   0  0  0  0  0  0  0  0  0  0  0  0
   19.6330   17.9500    3.2110 C   0  0  0  0  0  0  0  0  0  0  0  0
   19.1760   16.4970    3.1220 C   0  0  0  0  0  0  0  0  0  0  0  0
   18.0240   16.2600    4.0870 N   0  0  0  0  0  4  0  0  0  0  0  0
   18.3690   16.6500    5.5120 C   0  0  0  0  0  0  0  0  0  0  0  0
   18.8360   18.0990    5.5570 C   0  0  0  0  0  0  0  0  0  0  0  0
   22.1910   17.3720    4.3010 O   0  0  0  0  0  1  0  0  0  0  0  0
   21.2140   17.4130    5.0940 C   0  0  0  0  0  0  0  0  0  0  0  0
   21.1000   16.9340    6.2530 O   0  0  0  0  0  0  0  0  0  0  0  0
   17.5420   14.8330    4.0410 C   0  0  0  0  0  0  0  0  0  0  0  0
   16.0620   14.7110    4.0310 C   0  0  0  0  0  0  0  0  0  0  0  0
   15.1390   15.6250    4.5860 C   0  0  0  0  0  0  0  0  0  0  0  0
   13.8750   15.2510    4.4030 N   0  0  0  0  0  0  0  0  0  0  0  0
   13.9690   14.0790    3.7540 N   0  0  0  0  0  0  0  0  0  0  0  0
   15.2660   13.7010    3.5060 C   0  0  0  0  0  0  0  0  0  0  0  0
   15.6100   12.4340    2.8060 C   0  0  0  0  0  0  0  0  0  0  0  0
   12.7620   13.3650    3.4040 C   0  0  0  0  0  0  0  0  0  0  0  0
   20.3668   19.3587    4.6828 H   0  0  0  0  0  0  0  0  0  0  0  0
   18.8082   18.6064    2.8967 H   0  0  0  0  0  0  0  0  0  0  0  0
   20.5044   18.0843    2.5532 H   0  0  0  0  0  0  0  0  0  0  0  0
   18.8435   16.2808    2.0960 H   0  0  0  0  0  0  0  0  0  0  0  0
   20.0140   15.8354    3.3867 H   0  0  0  0  0  0  0  0  0  0  0  0
   17.2597   16.8741    3.7715 H   0  0  0  0  0  0  0  0  0  0  0  0
   17.4783   16.5345    6.1471 H   0  0  0  0  0  0  0  0  0  0  0  0
   19.1761   15.9990    5.8792 H   0  0  0  0  0  0  0  0  0  0  0  0
   19.1194   18.3549    6.5886 H   0  0  0  0  0  0  0  0  0  0  0  0
   18.0145   18.7454    5.2146 H   0  0  0  0  0  0  0  0  0  0  0  0
   17.9371   14.3606    3.1295 H   0  0  0  0  0  0  0  0  0  0  0  0
   17.9027   14.3385    4.9550 H   0  0  0  0  0  0  0  0  0  0  0  0
   15.4329   16.5453    5.1120 H   0  0  0  0  0  0  0  0  0  0  0  0
   15.8226   11.6509    3.5486 H   0  0  0  0  0  0  0  0  0  0  0  0
   14.7641   12.1219    2.1759 H   0  0  0  0  0  0  0  0  0  0  0  0
   16.4976   12.5925    2.1759 H   0  0  0  0  0  0  0  0  0  0  0  0
   12.2397   13.0560    4.3214 H   0  0  0  0  0  0  0  0  0  0  0  0
   12.1066   14.0208    2.8121 H   0  0  0  0  0  0  0  0  0  0  0  0
   13.0212   12.4748    2.8121 H   0  0  0  0  0  0  0  0  0  0  0  0
  2  1  1  0
  3  2  1  0
  4  3  1  0
  5  4  1  0
  6  1  1  0
  6  5  1  0
  8  1  1  0
  8  7  1  0
  9  8  2  0
 10  4  1  0
 11 10  1  0
 12 11  1  0
 13 12  2  0
 14 13  1  0
 15 14  1  0
 15 11  2  0
 16 15  1  0
 17 14  1  0
  1 18  1  0
  2 19  1  0
  2 20  1  0
  3 21  1  0
  3 22  1  0
  4 23  1  0
  5 24  1  0
  5 25  1  0
  6 26  1  0
  6 27  1  0
 10 28  1  0
 10 29  1  0
 12 30  1  0
 16 31  1  0
 16 32  1  0
 16 33  1  0
 17 34  1  0
 17 35  1  0
 17 36  1  0
M  CHG  2   4   1   7  -1
M  END
$$$$
=
     RDKit          3D

 41 41  0  0  0  0  0  0  0  0999 V2000
   28.3410   28.3790   16.3470 C   0  0  2  0  0  0  0  0  0  0  0  0
   29.3030   29.5320   16.0800 C   0  0  0  0  0  0  0  0  0  0  0  0
   30.6890   28.8700   16.1510 C   0  0  0  0  0  0  0  0  0  0  0  0
   30.4260   27.3570   16.1820 C   0  0  0  0  0  0  0  0  0  0  0  0
   29.0430   27.2340   15.7650 N   0  0  0  0  0  0  0  0  0  0  0  0
   28.8560   26.9700   14.4100 C   0  0  0  0  0  0  0  0  0  0  0  0
   28.1840   27.6470   13.6480 O   0  0  0  0  0  0  0  0  0  0  0  0
   26.0790   27.4520   16.2990 N   0  0  0  0  0  0  0  0  0  0  0  0
   26.8370   28.5680   16.0460 C   0  0  0  0  0  0  0  0  0  0  0  0
   26.3950   29.5720   15.4880 O   0  0  0  0  0  0  0  0  0  0  0  0
   24.6110   27.3760   16.1750 C   0  0  1  0  0  0  0  0  0  0  0  0
   24.2010   26.3350   15.1420 C   0  0  0  0  0  0  0  0  0  0  0  0
   23.2300   25.9840   17.5890 O   0  0  0  0  0  1  0  0  0  0  0  0
   23.9610   27.0120   17.5560 C   0  0  0  0  0  0  0  0  0  0  0  0
   24.2610   27.8290   18.4880 O   0  0  0  0  0  0  0  0  0  0  0  0
   29.5510   25.8580   14.0400 O   0  0  0  0  0  0  0  0  0  0  0  0
   28.8700   24.5950   13.8400 C   0  0  0  0  0  0  0  0  0  0  0  0
   28.6040   24.3340   12.3530 C   0  0  0  0  0  0  0  0  0  0  0  0
   29.8610   23.5380   14.3490 C   0  0  0  0  0  0  0  0  0  0  0  0
   27.5900   24.5080   14.6790 C   0  0  0  0  0  0  0  0  0  0  0  0
   28.1489   28.2445   17.4217 H   0  0  0  0  0  0  0  0  0  0  0  0
   29.1267   29.9685   15.0858 H   0  0  0  0  0  0  0  0  0  0  0  0
   29.1874   30.3596   16.7953 H   0  0  0  0  0  0  0  0  0  0  0  0
   31.2874   29.1372   15.2675 H   0  0  0  0  0  0  0  0  0  0  0  0
   31.2527   29.2022   17.0352 H   0  0  0  0  0  0  0  0  0  0  0  0
   31.0933   26.8296   15.4845 H   0  0  0  0  0  0  0  0  0  0  0  0
   30.6111   26.9148   17.1721 H   0  0  0  0  0  0  0  0  0  0  0  0
   26.5743   26.6003   16.5992 H   0  0  0  0  0  0  0  0  0  0  0  0
   24.2547   28.3640   15.8482 H   0  0  0  0  0  0  0  0  0  0  0  0
   23.8445   25.4298   15.6552 H   0  0  0  0  0  0  0  0  0  0  0  0
   23.3955   26.7408   14.5123 H   0  0  0  0  0  0  0  0  0  0  0  0
   25.0668   26.0825   14.5123 H   0  0  0  0  0  0  0  0  0  0  0  0
   27.8223   23.5670   12.2494 H   0  0  0  0  0  0  0  0  0  0  0  0
   28.2704   25.2649   11.8713 H   0  0  0  0  0  0  0  0  0  0  0  0
   29.5284   23.9828   11.8713 H   0  0  0  0  0  0  0  0  0  0  0  0
   29.8625   23.5364   15.4490 H   0  0  0  0  0  0  0  0  0  0  0  0
   29.5600   22.5459   13.9813 H   0  0  0  0  0  0  0  0  0  0  0  0
   30.8704   23.7745   13.9813 H   0  0  0  0  0  0  0  0  0  0  0  0
   27.8501   24.5257   15.7476 H   0  0  0  0  0  0  0  0  0  0  0  0
   26.9398   25.3640   14.4457 H   0  0  0  0  0  0  0  0  0  0  0  0
   27.0616   23.5719   14.4457 H   0  0  0  0  0  0  0  0  0  0  0  0
  2  1  1  0
  3  2  1  0
  4  3  1  0
  5  4  1  0
  5  1  1  0
  6  5  1  0
  7  6  2  0
  9  8  1  0
  9  1  1  0
 10  9  2  0
 11  8  1  0
 12 11  1  0
 14 13  1  0
 14 11  1  0
 15 14  2  0
 16  6  1  0
 17 16  1  0
 18 17  1  0
 19 17  1  0
 20 17  1  0
  1 21  1  1
  2 22  1  0
  2 23  1  0
  3 24  1  0
  3 25  1  0
  4 26  1  0
  4 27  1  0
  8 28  1  0
 11 29  1  6
 12 30  1  0
 12 31  1  0
 12 32  1  0
 18 33  1  0
 18 34  1  0
 18 35  1  0
 19 36  1  0
 19 37  1  0
 19 38  1  0
 20 39  1  0
 20 40  1  0
 20 41  1  0
M  CHG  1  13  -1
M  END
$$$$
=
     RDKit          3D

 20 20  0  0  0  0  0  0  0  0999 V2000
   19.1780   16.8390    4.8750 C   0  0  0  0  0  0  0  0  0  0  0  0
   17.9530   16.6550    4.3250 N   0  0  0  0  0  0  0  0  0  0  0  0
   17.8020   15.3160    4.3030 N   0  0  0  0  0  0  0  0  0  0  0  0
   18.8530   14.6300    4.8170 C   0  0  0  0  0  0  0  0  0  0  0  0
   19.7500   15.5910    5.2200 C   0  0  0  0  0  0  0  0  0  0  0  0
   16.5880   14.7550    3.7660 C   0  0  0  0  0  0  0  0  0  0  0  0
   21.1030   15.3680    5.9530 C   0  0  0  0  0  0  0  0  0  0  0  0
   22.1370   15.2790    5.2270 O   0  0  0  0  0  0  0  0  0  0  0  0
   21.0520   15.3260    7.2210 O   0  0  0  0  0  1  0  0  0  0  0  0
   19.7650   18.1730    5.0350 C   0  0  0  0  0  0  0  0  0  0  0  0
   19.3730   19.0060    5.8530 O   0  0  0  0  0  0  0  0  0  0  0  0
   21.9960   18.7560    4.6440 C   0  0  0  0  0  0  0  0  0  0  0  0
   20.7260   18.4300    4.0940 O   0  0  0  0  0  0  0  0  0  0  0  0
   18.9640   13.5384    4.8948 H   0  0  0  0  0  0  0  0  0  0  0  0
   15.9283   14.4502    4.5918 H   0  0  0  0  0  0  0  0  0  0  0  0
   16.0778   15.5086    3.1482 H   0  0  0  0  0  0  0  0  0  0  0  0
   16.8313   13.8780    3.1482 H   0  0  0  0  0  0  0  0  0  0  0  0
   21.9349   18.7403    5.7422 H   0  0  0  0  0  0  0  0  0  0  0  0
   22.7411   18.0200    4.3077 H   0  0  0  0  0  0  0  0  0  0  0  0
   22.2945   19.7599    4.3077 H   0  0  0  0  0  0  0  0  0  0  0  0
  2  1  2  0
  3  2  1  0
  4  3  1  0
  5  4  2  0
  5  1  1  0
  6  3  1  0
  7  5  1  0
  8  7  2  0
  9  7  1  0
 10  1  1  0
 11 10  2  0
 13 10  1  0
 13 12  1  0
  4 14  1  0
  6 15  1  0
  6 16  1  0
  6 17  1  0
 12 18  1  0
 12 19  1  0
 12 20  1  0
M  CHG  1   9  -1
M  END
$$$$
=
     RDKit          3D

 30 30  0  0  0  0  0  0  0  0999 V2000
   19.0150   16.1520    3.3440 C   0  0  0  0  0  0  0  0  0  0  0  0
   17.7040   15.8020    4.0060 C   0  0  0  0  0  0  0  0  0  0  0  0
   16.9150   14.7670    3.4760 C   0  0  0  0  0  0  0  0  0  0  0  0
   15.6710   14.4710    4.0230 C   0  0  0  0  0  0  0  0  0  0  0  0
   15.2030   15.1570    5.1340 C   0  0  0  0  0  0  0  0  0  0  0  0
   15.9840   16.1670    5.6960 C   0  0  0  0  0  0  0  0  0  0  0  0
   17.2210   16.4840    5.1290 C   0  0  0  0  0  0  0  0  0  0  0  0
   14.8790   13.5110    3.4690 O   0  0  0  0  0  0  0  0  0  0  0  0
   17.9860   17.4710    5.6840 O   0  0  0  0  0  0  0  0  0  0  0  0
   20.1200   16.5680    4.2610 N   0  0  0  0  0  4  0  0  0  0  0  0
   20.9280   15.4260    4.8970 C   0  0  0  0  0  0  0  0  0  0  0  0
   19.6620   14.3380    6.6040 O   0  0  0  0  0  1  0  0  0  0  0  0
   20.6510   15.0940    6.3900 C   0  0  0  0  0  0  0  0  0  0  0  0
   21.3860   15.7100    7.2150 O   0  0  0  0  0  0  0  0  0  0  0  0
   21.0030   17.7060    3.7480 C   0  0  0  0  0  0  0  0  0  0  0  0
   21.6120   18.5980    4.8580 C   0  0  0  0  0  0  0  0  0  0  0  0
   20.7980   18.8200    5.8060 O   0  0  0  0  0  0  0  0  0  0  0  0
   22.7960   18.9800    4.6750 O   0  0  0  0  0  1  0  0  0  0  0  0
   19.3562   15.2686    2.7844 H   0  0  0  0  0  0  0  0  0  0  0  0
   18.8052   17.0292    2.7143 H   0  0  0  0  0  0  0  0  0  0  0  0
   17.2852   14.1847    2.6193 H   0  0  0  0  0  0  0  0  0  0  0  0
   14.2239   14.9066    5.5684 H   0  0  0  0  0  0  0  0  0  0  0  0
   15.6272   16.7119    6.5824 H   0  0  0  0  0  0  0  0  0  0  0  0
   13.9952   13.3083    3.8665 H   0  0  0  0  0  0  0  0  0  0  0  0
   18.8633   17.6999    5.2865 H   0  0  0  0  0  0  0  0  0  0  0  0
   19.5873   16.9734    5.0437 H   0  0  0  0  0  0  0  0  0  0  0  0
   20.7257   14.5153    4.3142 H   0  0  0  0  0  0  0  0  0  0  0  0
   21.9705   15.7763    4.8772 H   0  0  0  0  0  0  0  0  0  0  0  0
   21.8287   17.2660    3.1695 H   0  0  0  0  0  0  0  0  0  0  0  0
   20.3538   18.3575    3.1447 H   0  0  0  0  0  0  0  0  0  0  0  0
  2  1  1  0
  3  2  2  0
  4  3  1  0
  5  4  2  0
  6  5  1  0
  7  6  2  0
  7  2  1  0
  8  4  1  0
  9  7  1  0
 10  1  1  0
 11 10  1  0
 13 11  1  0
 13 12  1  0
 14 13  2  0
 15 10  1  0
 16 15  1  0
 17 16  2  0
 18 16  1  0
  1 19  1  0
  1 20  1  0
  3 21  1  0
  5 22  1  0
  6 23  1  0
  8 24  1  0
  9 25  1  0
 10 26  1  0
 11 27  1  0
 11 28  1  0
 15 29  1  0
 15 30  1  0
M  CHG  3  10   1  12  -1  18  -1
M  END
$$$$
=
     RDKit          3D

 28 28  0  0  0  0  0  0  0  0999 V2000
   19.8020   16.1230    5.3040 C   0  0  2  0  0  0  0  0  0  0  0  0
   20.8530   16.9940    4.7200 N   0  0  0  0  0  0  0  0  0  0  0  0
   21.0910   18.2880    5.0820 C   0  0  0  0  0  0  0  0  0  0  0  0
   20.3760   18.9520    5.8250 O   0  0  0  0  0  0  0  0  0  0  0  0
   22.3390   18.8670    4.4700 C   0  0  0  0  0  0  0  0  0  0  0  0
   21.3970   15.7310    7.0880 O   0  0  0  0  0  1  0  0  0  0  0  0
   20.4140   15.2540    6.4600 C   0  0  0  0  0  0  0  0  0  0  0  0
   19.8220   14.1360    6.6190 O   0  0  0  0  0  0  0  0  0  0  0  0
   19.1790   15.2080    4.2390 C   0  0  0  0  0  0  0  0  0  0  0  0
   17.6640   15.1990    4.2680 C   0  0  0  0  0  0  0  0  0  0  0  0
   16.9630   16.1230    5.0520 C   0  0  0  0  0  0  0  0  0  0  0  0
   15.5670   16.1250    5.0730 C   0  0  0  0  0  0  0  0  0  0  0  0
   14.8700   15.1990    4.3020 C   0  0  0  0  0  0  0  0  0  0  0  0
   15.5460   14.2800    3.5110 C   0  0  0  0  0  0  0  0  0  0  0  0
   16.9410   14.2820    3.4890 C   0  0  0  0  0  0  0  0  0  0  0  0
   13.5040   15.1750    4.2930 O   0  0  0  0  0  0  0  0  0  0  0  0
   19.0075   16.7686    5.7064 H   0  0  0  0  0  0  0  0  0  0  0  0
   21.4493   16.5898    3.9838 H   0  0  0  0  0  0  0  0  0  0  0  0
   23.0253   19.1854    5.2685 H   0  0  0  0  0  0  0  0  0  0  0  0
   22.8297   18.1046    3.8472 H   0  0  0  0  0  0  0  0  0  0  0  0
   22.0737   19.7340    3.8472 H   0  0  0  0  0  0  0  0  0  0  0  0
   19.5071   15.5528    3.2473 H   0  0  0  0  0  0  0  0  0  0  0  0
   19.5149   14.1828    4.4536 H   0  0  0  0  0  0  0  0  0  0  0  0
   17.5177   16.8548    5.6576 H   0  0  0  0  0  0  0  0  0  0  0  0
   15.0226   16.8521    5.6935 H   0  0  0  0  0  0  0  0  0  0  0  0
   14.9846   13.5539    2.9047 H   0  0  0  0  0  0  0  0  0  0  0  0
   17.4782   13.5598    2.8567 H   0  0  0  0  0  0  0  0  0  0  0  0
   13.0243   14.5096    3.7388 H   0  0  0  0  0  0  0  0  0  0  0  0
  2  1  1  0
  3  2  1  0
  4  3  2  0
  5  3  1  0
  7  1  1  0
  7  6  1  0
  8  7  2  0
  9  1  1  0
 10  9  1  0
 11 10  2  0
 12 11  1  0
 13 12  2  0
 14 13  1  0
 15 14  2  0
 15 10  1  0
 16 13  1  0
  1 17  1  1
  2 18  1  0
  5 19  1  0
  5 20  1  0
  5 21  1  0
  9 22  1  0
  9 23  1  0
 11 24  1  0
 12 25  1  0
 14 26  1  0
 15 27  1  0
 16 28  1  0
M  CHG  1   6  -1
M  END
$$$$
=
     RDKit          3D

 29 30  0  0  0  0  0  0  0  0999 V2000
   18.4980   16.4980    5.1080 C   0  0  0  0  0  0  0  0  0  0  0  0
   17.2940   15.7140    4.7070 C   0  0  0  0  0  0  0  0  0  0  0  0
   16.0530   15.8690    5.1280 N   0  0  0  0  0  0  0  0  0  0  0  0
   15.3290   14.8960    4.4790 C   0  0  0  0  0  0  0  0  0  0  0  0
   16.1420   14.1320    3.6500 C   0  0  0  0  0  0  0  0  0  0  0  0
   17.3910   14.6670    3.8180 N   0  0  0  0  0  0  0  0  0  0  0  0
   15.6680   13.0810    2.8630 C   0  0  0  0  0  0  0  0  0  0  0  0
   14.2970   12.8070    2.9420 C   0  0  0  0  0  0  0  0  0  0  0  0
   13.4540   13.5530    3.7690 C   0  0  0  0  0  0  0  0  0  0  0  0
   13.9590   14.6050    4.5460 C   0  0  0  0  0  0  0  0  0  0  0  0
   19.6890   16.3370    4.1480 C   0  0  1  0  0  0  0  0  0  0  0  0
   20.0730   17.7210    3.6400 C   0  0  0  0  0  0  0  0  0  0  0  0
   21.3980   17.9090    3.5140 F   0  0  0  0  0  0  0  0  0  0  0  0
   19.4780   18.0070    2.4590 F   0  0  0  0  0  0  0  0  0  0  0  0
   19.6330   18.6660    4.5170 F   0  0  0  0  0  0  0  0  0  0  0  0
   20.9000   15.5820    4.7200 C   0  0  0  0  0  0  0  0  0  0  0  0
   20.6670   14.8560    6.9390 O   0  0  0  0  0  1  0  0  0  0  0  0
   21.0960   15.8020    6.2140 C   0  0  0  0  0  0  0  0  0  0  0  0
   21.6510   16.8820    6.5310 O   0  0  0  0  0  0  0  0  0  0  0  0
   18.2229   17.5624    5.1445 H   0  0  0  0  0  0  0  0  0  0  0  0
   18.8202   16.1138    6.0871 H   0  0  0  0  0  0  0  0  0  0  0  0
   18.2540   14.3424    3.3588 H   0  0  0  0  0  0  0  0  0  0  0  0
   16.3375   12.4977    2.2137 H   0  0  0  0  0  0  0  0  0  0  0  0
   13.8755   11.9879    2.3408 H   0  0  0  0  0  0  0  0  0  0  0  0
   12.3815   13.3123    3.8111 H   0  0  0  0  0  0  0  0  0  0  0  0
   13.2929   15.1912    5.1961 H   0  0  0  0  0  0  0  0  0  0  0  0
   19.3589   15.6877    3.3237 H   0  0  0  0  0  0  0  0  0  0  0  0
   20.7569   14.5061    4.5413 H   0  0  0  0  0  0  0  0  0  0  0  0
   21.7955   15.9708    4.2131 H   0  0  0  0  0  0  0  0  0  0  0  0
  2  1  1  0
  3  2  2  0
  4  3  1  0
  5  4  2  0
  6  5  1  0
  6  2  1  0
  7  5  1  0
  8  7  2  0
  9  8  1  0
 10  9  2  0
 10  4  1  0
 11  1  1  0
 12 11  1  0
 13 12  1  0
 14 12  1  0
 15 12  1  0
 16 11  1  0
 18 16  1  0
 18 17  1  0
 19 18  2  0
  1 20  1  0
  1 21  1  0
  6 22  1  0
  7 23  1  0
  8 24  1  0
  9 25  1  0
 10 26  1  0
 11 27  1  6
 16 28  1  0
 16 29  1  0
M  CHG  1  17  -1
M  END
$$$$
=
     RDKit          3D

 37 39  0  0  0  0  0  0  0  0999 V2000
   18.6450   14.3730    5.5310 C   0  0  2  0  0  0  0  0  0  0  0  0
   18.1500   15.2370    6.6600 C   0  0  1  0  0  0  0  0  0  0  0  0
   19.6090   15.2880    6.2560 C   0  0  2  0  0  0  0  0  0  0  0  0
   20.3370   16.4520    5.6200 C   0  0  0  0  0  0  0  0  0  0  0  0
   21.5020   16.2340    4.8570 C   0  0  0  0  0  0  0  0  0  0  0  0
   22.2260   17.2900    4.2980 C   0  0  0  0  0  0  0  0  0  0  0  0
   21.8050   18.5930    4.5130 C   0  0  0  0  0  0  0  0  0  0  0  0
   20.6820   18.8530    5.2820 C   0  0  0  0  0  0  0  0  0  0  0  0
   19.9660   17.7880    5.8380 C   0  0  0  0  0  0  0  0  0  0  0  0
   22.5010   19.6100    3.9860 F   0  0  0  0  0  0  0  0  0  0  0  0
   18.2990   14.7720    3.8020 S   0  0  0  0  0  6  0  0  0  0  0  0
   18.2980   16.1940    3.5340 O   0  0  0  0  0  0  0  0  0  0  0  0
   19.2200   13.9170    3.0580 O   0  0  0  0  0  0  0  0  0  0  0  0
   12.7700   12.4470    2.8170 C   0  0  0  0  0  0  0  0  0  0  0  0
   14.1350   13.0330    3.0250 C   0  0  0  0  0  0  0  0  0  0  0  0
   15.2770   12.2580    2.7890 C   0  0  0  0  0  0  0  0  0  0  0  0
   16.5510   12.7870    3.0060 C   0  0  0  0  0  0  0  0  0  0  0  0
   16.6880   14.1020    3.4470 C   0  0  0  0  0  0  0  0  0  0  0  0
   15.5550   14.8770    3.7170 C   0  0  0  0  0  0  0  0  0  0  0  0
   14.2820   14.3410    3.5050 C   0  0  0  0  0  0  0  0  0  0  0  0
   17.1120   16.2320    6.4190 C   0  0  0  0  0  0  0  0  0  0  0  0
   15.9170   15.8080    6.4510 O   0  0  0  0  0  0  0  0  0  0  0  0
   17.4550   17.4500    6.3430 O   0  0  0  0  0  1  0  0  0  0  0  0
   18.5554   13.2969    5.3214 H   0  0  0  0  0  0  0  0  0  0  0  0
   17.6682   15.1189    7.6418 H   0  0  0  0  0  0  0  0  0  0  0  0
   20.5616   15.1762    6.7946 H   0  0  0  0  0  0  0  0  0  0  0  0
   21.8510   15.2031    4.6972 H   0  0  0  0  0  0  0  0  0  0  0  0
   23.1222   17.0892    3.6926 H   0  0  0  0  0  0  0  0  0  0  0  0
   20.3561   19.8894    5.4539 H   0  0  0  0  0  0  0  0  0  0  0  0
   19.0874   18.0035    6.4638 H   0  0  0  0  0  0  0  0  0  0  0  0
   12.3042   12.2470    3.7932 H   0  0  0  0  0  0  0  0  0  0  0  0
   12.1481   13.1574    2.2526 H   0  0  0  0  0  0  0  0  0  0  0  0
   12.8567   11.5068    2.2526 H   0  0  0  0  0  0  0  0  0  0  0  0
   15.1697   11.2239    2.4297 H   0  0  0  0  0  0  0  0  0  0  0  0
   17.4431   12.1681    2.8295 H   0  0  0  0  0  0  0  0  0  0  0  0
   15.6658   15.9042    4.0947 H   0  0  0  0  0  0  0  0  0  0  0  0
   13.3903   14.9495    3.7162 H   0  0  0  0  0  0  0  0  0  0  0  0
  2  1  1  0
  3  2  1  0
  3  1  1  0
  4  3  1  0
  5  4  2  0
  6  5  1  0
  7  6  2  0
  8  7  1  0
  9  8  2  0
  9  4  1  0
 10  7  1  0
 11  1  1  0
 12 11  2  0
 13 11  2  0
 15 14  1  0
 16 15  2  0
 17 16  1  0
 18 17  2  0
 18 11  1  0
 19 18  1  0
 20 19  2  0
 20 15  1  0
 21  2  1  0
 22 21  2  0
 23 21  1  0
  1 24  1  1
  2 25  1  1
  3 26  1  1
  5 27  1  0
  6 28  1  0
  8 29  1  0
  9 30  1  0
 14 31  1  0
 14 32  1  0
 14 33  1  0
 16 34  1  0
 17 35  1  0
 19 36  1  0
 20 37  1  0
M  CHG  1  23  -1
M  END
$$$$
=
     RDKit          3D

 32 34  0  0  0  0  0  0  0  0999 V2000
   17.8750   15.2660    4.1530 C   0  0  0  0  0  0  0  0  0  0  0  0
   18.2760   16.1470    3.2050 N   0  0  0  0  0  0  0  0  0  0  0  0
   19.4550   16.7750    3.3570 C   0  0  0  0  0  0  0  0  0  0  0  0
   19.8170   17.6900    2.3780 C   0  0  0  0  0  0  0  0  0  0  0  0
   21.0100   18.4130    2.4380 C   0  0  0  0  0  0  0  0  0  0  0  0
   21.8670   18.2220    3.5090 C   0  0  0  0  0  0  0  0  0  0  0  0
   21.5260   17.3070    4.5050 C   0  0  0  0  0  0  0  0  0  0  0  0
   20.3240   16.5590    4.4510 C   0  0  0  0  0  0  0  0  0  0  0  0
   19.9100   15.6150    5.4250 C   0  0  0  0  0  0  0  0  0  0  0  0
   18.6690   14.9790    5.2540 C   0  0  0  0  0  0  0  0  0  0  0  0
   12.6510   12.8430    3.2690 C   0  0  0  0  0  0  0  0  0  0  0  0
   14.0000   13.4460    3.5190 C   0  0  0  0  0  0  0  0  0  0  0  0
   14.1330   14.5880    4.3090 C   0  0  0  0  0  0  0  0  0  0  0  0
   15.3920   15.1660    4.5140 C   0  0  0  0  0  0  0  0  0  0  0  0
   16.5540   14.6360    3.9250 C   0  0  0  0  0  0  0  0  0  0  0  0
   16.3980   13.4880    3.1270 C   0  0  0  0  0  0  0  0  0  0  0  0
   15.1410   12.9050    2.9200 C   0  0  0  0  0  0  0  0  0  0  0  0
   20.7150   15.2470    6.6480 C   0  0  0  0  0  0  0  0  0  0  0  0
   20.5770   14.0560    7.0730 O   0  0  0  0  0  0  0  0  0  0  0  0
   21.4880   16.1230    7.1440 O   0  0  0  0  0  1  0  0  0  0  0  0
   19.1407   17.8511    1.5255 H   0  0  0  0  0  0  0  0  0  0  0  0
   21.2667   19.1276    1.6421 H   0  0  0  0  0  0  0  0  0  0  0  0
   22.8086   18.7871    3.5736 H   0  0  0  0  0  0  0  0  0  0  0  0
   22.2087   17.1623    5.3553 H   0  0  0  0  0  0  0  0  0  0  0  0
   18.3239   14.2473    5.9993 H   0  0  0  0  0  0  0  0  0  0  0  0
   12.1630   12.6249    4.2304 H   0  0  0  0  0  0  0  0  0  0  0  0
   12.0334   13.5507    2.6966 H   0  0  0  0  0  0  0  0  0  0  0  0
   12.7664   11.9108    2.6966 H   0  0  0  0  0  0  0  0  0  0  0  0
   13.2432   15.0374    4.7740 H   0  0  0  0  0  0  0  0  0  0  0  0
   15.4743   16.0580    5.1525 H   0  0  0  0  0  0  0  0  0  0  0  0
   17.2835   13.0377    2.6546 H   0  0  0  0  0  0  0  0  0  0  0  0
   15.0514   12.0142    2.2809 H   0  0  0  0  0  0  0  0  0  0  0  0
  2  1  2  0
  3  2  1  0
  4  3  2  0
  5  4  1  0
  6  5  2  0
  7  6  1  0
  8  7  2  0
  8  3  1  0
  9  8  1  0
 10  9  2  0
 10  1  1  0
 12 11  1  0
 13 12  2  0
 14 13  1  0
 15 14  2  0
 15  1  1  0
 16 15  1  0
 17 12  1  0
 17 16  2  0
 18  9  1  0
 19 18  2  0
 20 18  1  0
  4 21  1  0
  5 22  1  0
  6 23  1  0
  7 24  1  0
 10 25  1  0
 11 26  1  0
 11 27  1  0
 11 28  1  0
 13 29  1  0
 14 30  1  0
 16 31  1  0
 17 32  1  0
M  CHG  1  20  -1
M  END
$$$$
=
     RDKit          3D

 33 34  0  0  0  0  0  0  0  0999 V2000
   20.2220   17.7950    5.2650 C   0  0  1  0  0  0  0  0  0  0  0  0
   20.0190   18.2660    3.8250 C   0  0  0  0  0  0  0  0  0  0  0  0
   19.7150   17.1330    2.8380 C   0  0  0  0  0  0  0  0  0  0  0  0
   19.1760   15.8800    3.5170 C   0  0  0  0  0  0  0  0  0  0  0  0
   18.3420   16.2500    4.6590 N   0  0  0  0  0  0  0  0  0  0  0  0
   19.0860   16.8880    5.7550 C   0  0  0  0  0  0  0  0  0  0  0  0
   17.0840   15.7210    4.9380 C   0  0  0  0  0  0  0  0  0  0  0  0
   16.6040   15.7310    6.0700 O   0  0  0  0  0  0  0  0  0  0  0  0
   16.4220   15.2450    3.8290 N   0  0  0  0  0  0  0  0  0  0  0  0
   15.2010   14.5400    3.7900 C   0  0  0  0  0  0  0  0  0  0  0  0
   13.9850   15.0580    4.2370 C   0  0  0  0  0  0  0  0  0  0  0  0
   12.8210   14.2820    4.1770 C   0  0  0  0  0  0  0  0  0  0  0  0
   12.8630   12.9800    3.6760 C   0  0  0  0  0  0  0  0  0  0  0  0
   14.0740   12.4510    3.2360 C   0  0  0  0  0  0  0  0  0  0  0  0
   15.2270   13.2290    3.2990 C   0  0  0  0  0  0  0  0  0  0  0  0
   16.3860   12.7010    2.8730 F   0  0  0  0  0  0  0  0  0  0  0  0
   21.5560   16.3580    6.5860 O   0  0  0  0  0  1  0  0  0  0  0  0
   21.5520   17.0820    5.5500 C   0  0  0  0  0  0  0  0  0  0  0  0
   22.4910   17.3070    4.7360 O   0  0  0  0  0  0  0  0  0  0  0  0
   20.2313   18.7445    5.8202 H   0  0  0  0  0  0  0  0  0  0  0  0
   19.1783   18.9752    3.8078 H   0  0  0  0  0  0  0  0  0  0  0  0
   20.9653   18.7250    3.5027 H   0  0  0  0  0  0  0  0  0  0  0  0
   18.9664   17.4894    2.1151 H   0  0  0  0  0  0  0  0  0  0  0  0
   20.6616   16.8604    2.3485 H   0  0  0  0  0  0  0  0  0  0  0  0
   18.5742   15.3058    2.7972 H   0  0  0  0  0  0  0  0  0  0  0  0
   20.0199   15.2686    3.8691 H   0  0  0  0  0  0  0  0  0  0  0  0
   18.3849   17.4944    6.3472 H   0  0  0  0  0  0  0  0  0  0  0  0
   19.5427   16.0847    6.3518 H   0  0  0  0  0  0  0  0  0  0  0  0
   16.8715   15.4250    2.9199 H   0  0  0  0  0  0  0  0  0  0  0  0
   13.9405   16.0811    4.6386 H   0  0  0  0  0  0  0  0  0  0  0  0
   11.8664   14.7016    4.5273 H   0  0  0  0  0  0  0  0  0  0  0  0
   11.9453   12.3753    3.6289 H   0  0  0  0  0  0  0  0  0  0  0  0
   14.1192   11.4252    2.8413 H   0  0  0  0  0  0  0  0  0  0  0  0
  2  1  1  0
  3  2  1  0
  4  3  1  0
  5  4  1  0
  6  5  1  0
  6  1  1  0
  7  5  1  0
  8  7  2  0
  9  7  1  0
 10  9  1  0
 11 10  2  0
 12 11  1  0
 13 12  2  0
 14 13  1  0
 15 14  2  0
 15 10  1  0
 16 15  1  0
 18  1  1  0
 18 17  1  0
 19 18  2  0
  1 20  1  1
  2 21  1  0
  2 22  1  0
  3 23  1  0
  3 24  1  0
  4 25  1  0
  4 26  1  0
  6 27  1  0
  6 28  1  0
  9 29  1  0
 11 30  1  0
 12 31  1  0
 13 32  1  0
 14 33  1  0
M  CHG  1  17  -1
M  END
$$$$
=
     RDKit          3D

 67 71  0  0  0  0  0  0  0  0999 V2000
   25.0630   26.4010   16.0260 C   0  0  1  0  0  0  0  0  0  0  0  0
   26.8700   24.1160   15.8270 O   0  0  0  0  0  0  0  0  0  0  0  0
   27.2200   25.1840   16.3080 C   0  0  0  0  0  0  0  0  0  0  0  0
   26.4850   26.3170   16.3950 N   0  0  0  0  0  0  0  0  0  0  0  0
   28.4550   25.4330   16.8120 O   0  0  0  0  0  0  0  0  0  0  0  0
   29.5520   24.8140   16.1240 C   0  0  0  0  0  0  0  0  0  0  0  0
   29.9520   25.5250   14.8190 C   0  0  0  0  0  0  0  0  0  0  0  0
   29.6390   27.0210   14.8900 C   0  0  0  0  0  0  0  0  0  0  0  0
   30.1280   27.9590   15.7850 C   0  0  0  0  0  0  0  0  0  0  0  0
   29.6970   29.2820   15.6550 C   0  0  0  0  0  0  0  0  0  0  0  0
   28.7980   29.6460   14.6390 C   0  0  0  0  0  0  0  0  0  0  0  0
   28.3180   28.6960   13.7320 C   0  0  0  0  0  0  0  0  0  0  0  0
   28.7440   27.3840   13.8610 C   0  0  0  0  0  0  0  0  0  0  0  0
   28.4390   26.2120   13.0680 C   0  0  0  0  0  0  0  0  0  0  0  0
   29.1310   25.1040   13.6040 C   0  0  0  0  0  0  0  0  0  0  0  0
   29.0690   23.8570   13.0000 C   0  0  0  0  0  0  0  0  0  0  0  0
   28.2920   23.7200   11.8500 C   0  0  0  0  0  0  0  0  0  0  0  0
   27.5870   24.8130   11.3220 C   0  0  0  0  0  0  0  0  0  0  0  0
   27.6570   26.0710   11.9310 C   0  0  0  0  0  0  0  0  0  0  0  0
   24.2200   27.2610   17.0160 C   0  0  0  0  0  0  0  0  0  0  0  0
   24.8360   27.6890   18.0340 O   0  0  0  0  0  0  0  0  0  0  0  0
   23.0040   27.4220   16.6890 O   0  0  0  0  0  1  0  0  0  0  0  0
   24.8910   27.1050   14.6680 C   0  0  0  0  0  0  0  0  0  0  0  0
   24.1970   26.2830   13.5940 C   0  0  0  0  0  0  0  0  0  0  0  0
   24.4890   24.9170   13.4550 C   0  0  0  0  0  0  0  0  0  0  0  0
   23.8580   24.1380   12.4770 C   0  0  0  0  0  0  0  0  0  0  0  0
   22.9290   24.7180   11.6210 C   0  0  0  0  0  0  0  0  0  0  0  0
   22.6410   26.0780   11.7380 C   0  0  0  0  0  0  0  0  0  0  0  0
   23.2740   26.8580   12.7120 C   0  0  0  0  0  0  0  0  0  0  0  0
   22.2510   24.0350   10.6500 O   0  0  0  0  0  0  0  0  0  0  0  0
   20.7040   23.5580   10.7620 P   0  0  2  0  0  5  0  0  0  0  0  0
   20.5260   22.1830   10.1580 O   0  0  0  0  0  0  0  0  0  0  0  0
   19.7710   24.6870   10.3880 O   0  0  0  0  0  1  0  0  0  0  0  0
   20.6220   23.3820   12.3770 O   0  0  0  0  0  0  0  0  0  0  0  0
   20.3300   22.0650   12.7920 C   0  0  0  0  0  0  0  0  0  0  0  0
   20.4710   21.9570   14.2930 C   0  0  0  0  0  0  0  0  0  0  0  0
   21.7430   21.9600   14.8860 C   0  0  0  0  0  0  0  0  0  0  0  0
   21.8840   21.8300   16.2680 C   0  0  0  0  0  0  0  0  0  0  0  0
   20.7540   21.6890   17.0730 C   0  0  0  0  0  0  0  0  0  0  0  0
   19.4850   21.6780   16.4950 C   0  0  0  0  0  0  0  0  0  0  0  0
   19.3440   21.8080   15.1110 C   0  0  0  0  0  0  0  0  0  0  0  0
   24.7185   25.3563   16.0221 H   0  0  0  0  0  0  0  0  0  0  0  0
   26.9479   27.1702   16.7396 H   0  0  0  0  0  0  0  0  0  0  0  0
   30.4229   24.8081   16.7959 H   0  0  0  0  0  0  0  0  0  0  0  0
   29.2242   23.8010   15.8476 H   0  0  0  0  0  0  0  0  0  0  0  0
   31.0170   25.2703   14.7149 H   0  0  0  0  0  0  0  0  0  0  0  0
   30.8359   27.6703   16.5759 H   0  0  0  0  0  0  0  0  0  0  0  0
   30.0655   30.0460   16.3554 H   0  0  0  0  0  0  0  0  0  0  0  0
   28.4673   30.6918   14.5557 H   0  0  0  0  0  0  0  0  0  0  0  0
   27.6178   28.9840   12.9340 H   0  0  0  0  0  0  0  0  0  0  0  0
   29.6177   22.9995   13.4166 H   0  0  0  0  0  0  0  0  0  0  0  0
   28.2308   22.7422   11.3499 H   0  0  0  0  0  0  0  0  0  0  0  0
   26.9726   24.6792   10.4194 H   0  0  0  0  0  0  0  0  0  0  0  0
   27.1048   26.9279   11.5178 H   0  0  0  0  0  0  0  0  0  0  0  0
   24.3008   28.0188   14.8312 H   0  0  0  0  0  0  0  0  0  0  0  0
   25.9074   27.2980   14.2943 H   0  0  0  0  0  0  0  0  0  0  0  0
   25.2258   24.4506   14.1255 H   0  0  0  0  0  0  0  0  0  0  0  0
   24.0973   23.0682   12.3863 H   0  0  0  0  0  0  0  0  0  0  0  0
   21.9101   26.5411   11.0588 H   0  0  0  0  0  0  0  0  0  0  0  0
   23.0447   27.9313   12.7854 H   0  0  0  0  0  0  0  0  0  0  0  0
   19.2994   21.8113   12.5030 H   0  0  0  0  0  0  0  0  0  0  0  0
   21.0325   21.3688   12.3106 H   0  0  0  0  0  0  0  0  0  0  0  0
   22.6377   22.0659   14.2549 H   0  0  0  0  0  0  0  0  0  0  0  0
   22.8858   21.8387   16.7223 H   0  0  0  0  0  0  0  0  0  0  0  0
   20.8636   21.5866   18.1627 H   0  0  0  0  0  0  0  0  0  0  0  0
   18.5935   21.5668   17.1297 H   0  0  0  0  0  0  0  0  0  0  0  0
   18.3405   21.7932   14.6606 H   0  0  0  0  0  0  0  0  0  0  0  0
  3  2  2  0
  4  3  1  0
  4  1  1  0
  5  3  1  0
  6  5  1  0
  7  6  1  0
  8  7  1  0
  9  8  2  0
 10  9  1  0
 11 10  2  0
 12 11  1  0
 13  8  1  0
 13 12  2  0
 14 13  1  0
 15 14  2  0
 15  7  1  0
 16 15  1  0
 17 16  2  0
 18 17  1  0
 19 18  2  0
 19 14  1  0
 20  1  1  0
 21 20  2  0
 22 20  1  0
 23  1  1  0
 24 23  1  0
 25 24  2  0
 26 25  1  0
 27 26  2  0
 28 27  1  0
 29 28  2  0
 29 24  1  0
 30 27  1  0
 31 30  1  0
 32 31  2  0
 31 33  1  6
 34 31  1  0
 35 34  1  0
 36 35  1  0
 37 36  2  0
 38 37  1  0
 39 38  2  0
 40 39  1  0
 41 40  2  0
 41 36  1  0
  1 42  1  6
  4 43  1  0
  6 44  1  0
  6 45  1  0
  7 46  1  0
  9 47  1  0
 10 48  1  0
 11 49  1  0
 12 50  1  0
 16 51  1  0
 17 52  1  0
 18 53  1  0
 19 54  1  0
 23 55  1  0
 23 56  1  0
 25 57  1  0
 26 58  1  0
 28 59  1  0
 29 60  1  0
 35 61  1  0
 35 62  1  0
 37 63  1  0
 38 64  1  0
 39 65  1  0
 40 66  1  0
 41 67  1  0
M  CHG  2  22  -1  33  -1
M  END
$$$$
=
     RDKit          3D

 26 27  0  0  0  0  0  0  0  0999 V2000
   17.5460   15.5700    4.7970 N   0  0  0  0  0  0  0  0  0  0  0  0
   18.6610   14.8970    5.1500 N   0  0  0  0  0  0  0  0  0  0  0  0
   19.5120   15.8900    5.4710 C   0  0  0  0  0  0  0  0  0  0  0  0
   18.8620   17.1330    5.2950 C   0  0  0  0  0  0  0  0  0  0  0  0
   17.6070   16.9270    4.8640 N   0  0  0  0  0  0  0  0  0  0  0  0
   19.3740   18.5030    5.5140 C   0  0  0  0  0  0  0  0  0  0  0  0
   12.7920   12.8370    3.1280 C   0  0  0  0  0  0  0  0  0  0  0  0
   14.0310   13.5710    3.5430 C   0  0  0  0  0  0  0  0  0  0  0  0
   13.9740   14.5440    4.5500 C   0  0  0  0  0  0  0  0  0  0  0  0
   15.1320   15.2080    4.9620 C   0  0  0  0  0  0  0  0  0  0  0  0
   16.3670   14.8960    4.3770 C   0  0  0  0  0  0  0  0  0  0  0  0
   16.4320   13.9130    3.3790 C   0  0  0  0  0  0  0  0  0  0  0  0
   15.2700   13.2530    2.9720 C   0  0  0  0  0  0  0  0  0  0  0  0
   21.0260   15.7430    5.9770 C   0  0  0  0  0  0  0  0  0  0  0  0
   21.1910   15.5370    7.2230 O   0  0  0  0  0  0  0  0  0  0  0  0
   21.9490   15.8410    5.1090 O   0  0  0  0  0  1  0  0  0  0  0  0
   19.4472   18.6988    6.5940 H   0  0  0  0  0  0  0  0  0  0  0  0
   20.3691   18.6002    5.0555 H   0  0  0  0  0  0  0  0  0  0  0  0
   18.6865   19.2290    5.0555 H   0  0  0  0  0  0  0  0  0  0  0  0
   12.2418   12.5111    4.0230 H   0  0  0  0  0  0  0  0  0  0  0  0
   12.1546   13.5033    2.5282 H   0  0  0  0  0  0  0  0  0  0  0  0
   13.0702   11.9579    2.5282 H   0  0  0  0  0  0  0  0  0  0  0  0
   13.0095   14.7869    5.0199 H   0  0  0  0  0  0  0  0  0  0  0  0
   15.0746   15.9768    5.7466 H   0  0  0  0  0  0  0  0  0  0  0  0
   17.3979   13.6616    2.9167 H   0  0  0  0  0  0  0  0  0  0  0  0
   15.3285   12.4760    2.1956 H   0  0  0  0  0  0  0  0  0  0  0  0
  2  1  1  0
  3  2  2  0
  4  3  1  0
  5  1  1  0
  5  4  2  0
  6  4  1  0
  8  7  1  0
  9  8  2  0
 10  9  1  0
 11 10  2  0
 11  1  1  0
 12 11  1  0
 13  8  1  0
 13 12  2  0
 14  3  1  0
 15 14  2  0
 16 14  1  0
  6 17  1  0
  6 18  1  0
  6 19  1  0
  7 20  1  0
  7 21  1  0
  7 22  1  0
  9 23  1  0
 10 24  1  0
 12 25  1  0
 13 26  1  0
M  CHG  1  16  -1
M  END
$$$$
=
     RDKit          3D

 34 36  0  0  0  0  0  0  0  0999 V2000
   27.1510   26.2060   12.2450 N   0  0  0  0  0  0  0  0  0  0  0  0
   28.1240   25.4830   11.4130 C   0  0  0  0  0  0  0  0  0  0  0  0
   27.6780   24.0240   11.4530 C   0  0  0  0  0  0  0  0  0  0  0  0
   26.1810   24.1270   11.6760 C   0  0  0  0  0  0  0  0  0  0  0  0
   26.0890   25.2850   12.6860 C   0  0  2  0  0  0  0  0  0  0  0  0
   28.9460   28.5520   15.2190 C   0  0  0  0  0  0  0  0  0  0  0  0
   28.5150   29.1380   14.0300 C   0  0  0  0  0  0  0  0  0  0  0  0
   27.9080   28.3540   13.0510 C   0  0  0  0  0  0  0  0  0  0  0  0
   27.7390   26.9830   13.2580 C   0  0  0  0  0  0  0  0  0  0  0  0
   28.1300   26.4050   14.4140 N   0  0  0  0  0  0  0  0  0  0  0  0
   28.7190   27.1930   15.3570 C   0  0  0  0  0  0  0  0  0  0  0  0
   30.8420   29.6450   16.1230 O   0  0  0  0  0  1  0  0  0  0  0  0
   29.6240   29.3370   16.3060 C   0  0  0  0  0  0  0  0  0  0  0  0
   28.9220   29.6380   17.3230 O   0  0  0  0  0  0  0  0  0  0  0  0
   24.7300   25.9510   12.6830 C   0  0  0  0  0  0  0  0  0  0  0  0
   23.9890   26.0250   11.5000 C   0  0  0  0  0  0  0  0  0  0  0  0
   22.7530   26.6520   11.5220 C   0  0  0  0  0  0  0  0  0  0  0  0
   22.2070   27.2120   12.6240 N   0  0  0  0  0  0  0  0  0  0  0  0
   22.9200   27.0960   13.7650 C   0  0  0  0  0  0  0  0  0  0  0  0
   24.1620   26.4860   13.8450 C   0  0  0  0  0  0  0  0  0  0  0  0
   28.1072   25.8634   10.3810 H   0  0  0  0  0  0  0  0  0  0  0  0
   29.1532   25.6087   11.7805 H   0  0  0  0  0  0  0  0  0  0  0  0
   27.9016   23.5167   10.5029 H   0  0  0  0  0  0  0  0  0  0  0  0
   28.1910   23.4365   12.2287 H   0  0  0  0  0  0  0  0  0  0  0  0
   25.6530   24.3683   10.7416 H   0  0  0  0  0  0  0  0  0  0  0  0
   25.7189   23.1928   12.0278 H   0  0  0  0  0  0  0  0  0  0  0  0
   26.2163   24.9456   13.7245 H   0  0  0  0  0  0  0  0  0  0  0  0
   28.6537   30.2167   13.8650 H   0  0  0  0  0  0  0  0  0  0  0  0
   27.5616   28.8152   12.1143 H   0  0  0  0  0  0  0  0  0  0  0  0
   29.0370   26.7151   16.2953 H   0  0  0  0  0  0  0  0  0  0  0  0
   24.3803   25.5929   10.5672 H   0  0  0  0  0  0  0  0  0  0  0  0
   22.1807   26.6965   10.5836 H   0  0  0  0  0  0  0  0  0  0  0  0
   22.4885   27.5112   14.6877 H   0  0  0  0  0  0  0  0  0  0  0  0
   24.6929   26.4233   14.8064 H   0  0  0  0  0  0  0  0  0  0  0  0
  2  1  1  0
  3  2  1  0
  4  3  1  0
  5  4  1  0
  5  1  1  0
  7  6  2  0
  8  7  1  0
  9  1  1  0
  9  8  2  0
 10  9  1  0
 11 10  2  0
 11  6  1  0
 13 12  1  0
 13  6  1  0
 14 13  2  0
 15  5  1  0
 16 15  2  0
 17 16  1  0
 18 17  2  0
 19 18  1  0
 20 19  2  0
 20 15  1  0
  2 21  1  0
  2 22  1  0
  3 23  1  0
  3 24  1  0
  4 25  1  0
  4 26  1  0
  5 27  1  1
  7 28  1  0
  8 29  1  0
 11 30  1  0
 16 31  1  0
 17 32  1  0
 19 33  1  0
 20 34  1  0
M  CHG  1  12  -1
M  END
$$$$
=
     RDKit          3D

 22 23  0  0  0  0  0  0  0  0999 V2000
   19.1970   16.1580    4.3060 C   0  0  0  0  0  0  0  0  0  0  0  0
   19.9410   15.1930    3.8030 N   0  0  0  0  0  0  0  0  0  0  0  0
   19.0810   14.1900    3.3990 N   0  0  0  0  0  0  0  0  0  0  0  0
   17.8670   14.6110    3.6840 C   0  0  0  0  0  0  0  0  0  0  0  0
   17.8590   15.8500    4.2610 O   0  0  0  0  0  0  0  0  0  0  0  0
   16.5870   13.9610    3.4770 C   0  0  0  0  0  0  0  0  0  0  0  0
   15.4110   14.5170    3.9930 C   0  0  0  0  0  0  0  0  0  0  0  0
   14.1870   13.8830    3.7890 C   0  0  0  0  0  0  0  0  0  0  0  0
   14.1740   12.7010    3.0680 C   0  0  0  0  0  0  0  0  0  0  0  0
   15.2820   12.1270    2.5520 N   0  0  0  0  0  0  0  0  0  0  0  0
   16.4590   12.7690    2.7680 C   0  0  0  0  0  0  0  0  0  0  0  0
   19.7680   17.6560    4.9600 S   0  0  0  0  0  0  0  0  0  0  0  0
   21.5370   17.5460    4.5580 C   0  0  0  0  0  0  0  0  0  0  0  0
   21.8050   16.4630    6.6460 O   0  0  0  0  0  1  0  0  0  0  0  0
   22.2470   17.3870    5.9030 C   0  0  0  0  0  0  0  0  0  0  0  0
   23.2260   18.1670    6.0960 O   0  0  0  0  0  0  0  0  0  0  0  0
   15.4530   15.4577    4.5616 H   0  0  0  0  0  0  0  0  0  0  0  0
   13.2560   14.3101    4.1900 H   0  0  0  0  0  0  0  0  0  0  0  0
   13.2072   12.2017    2.9065 H   0  0  0  0  0  0  0  0  0  0  0  0
   17.3730   12.3171    2.3552 H   0  0  0  0  0  0  0  0  0  0  0  0
   21.7324   16.6760    3.9139 H   0  0  0  0  0  0  0  0  0  0  0  0
   21.8892   18.4327    4.0105 H   0  0  0  0  0  0  0  0  0  0  0  0
  2  1  2  0
  3  2  1  0
  4  3  2  0
  5  4  1  0
  5  1  1  0
  6  4  1  0
  7  6  2  0
  8  7  1  0
  9  8  2  0
 10  9  1  0
 11 10  2  0
 11  6  1  0
 12  1  1  0
 13 12  1  0
 15 13  1  0
 15 14  1  0
 16 15  2  0
  7 17  1  0
  8 18  1  0
  9 19  1  0
 11 20  1  0
 13 21  1  0
 13 22  1  0
M  CHG  1  14  -1
M  END
$$$$
=
     RDKit          3D

 42 43  0  0  0  0  0  0  0  0999 V2000
   17.7340   13.2230    3.1940 S   0  0  0  0  0  6  0  0  0  0  0  0
   17.8750   12.0390    4.0180 O   0  0  0  0  0  0  0  0  0  0  0  0
   18.1440   13.2010    1.8040 O   0  0  0  0  0  0  0  0  0  0  0  0
   20.1680   16.5390    5.2180 C   0  0  0  0  0  0  0  0  0  0  0  0
   19.9850   15.3050    5.8530 C   0  0  0  0  0  0  0  0  0  0  0  0
   19.2400   14.2950    5.2400 C   0  0  0  0  0  0  0  0  0  0  0  0
   18.6620   14.5240    3.9910 C   0  0  0  0  0  0  0  0  0  0  0  0
   18.8630   15.7380    3.3300 C   0  0  0  0  0  0  0  0  0  0  0  0
   19.6130   16.7550    3.9410 C   0  0  0  0  0  0  0  0  0  0  0  0
   19.8080   18.0660    3.2300 C   0  0  0  0  0  0  0  0  0  0  0  0
   20.8810   17.5870    5.7400 O   0  0  0  0  0  0  0  0  0  0  0  0
   23.0470   18.3170    5.0720 C   0  0  0  0  0  0  0  0  0  0  0  0
   22.2710   17.3780    5.9790 C   0  0  0  0  0  0  0  0  0  0  0  0
   16.1350   13.7680    3.2770 N   0  0  0  0  0  0  0  0  0  0  0  0
   15.0590   12.8920    2.7350 C   0  0  0  0  0  0  0  0  0  0  0  0
   14.1400   12.4180    3.8540 C   0  0  0  0  0  0  0  0  0  0  0  0
   13.4170   13.5990    4.5100 C   0  0  0  0  0  0  0  0  0  0  0  0
   14.2600   14.8810    4.4610 C   0  0  0  0  0  0  0  0  0  0  0  0
   15.7520   14.5710    4.4650 C   0  0  0  0  0  0  0  0  0  0  0  0
   12.0750   13.9500    3.8480 C   0  0  0  0  0  0  0  0  0  0  0  0
   11.7440   13.2430    2.8580 O   0  0  0  0  0  0  0  0  0  0  0  0
   11.4640   14.9150    4.3890 O   0  0  0  0  0  1  0  0  0  0  0  0
   20.4315   15.1293    6.8428 H   0  0  0  0  0  0  0  0  0  0  0  0
   19.1096   13.3237    5.7396 H   0  0  0  0  0  0  0  0  0  0  0  0
   18.4332   15.8971    2.3300 H   0  0  0  0  0  0  0  0  0  0  0  0
   19.9277   18.8705    3.9706 H   0  0  0  0  0  0  0  0  0  0  0  0
   20.7078   18.0110    2.5997 H   0  0  0  0  0  0  0  0  0  0  0  0
   18.9311   18.2753    2.5997 H   0  0  0  0  0  0  0  0  0  0  0  0
   23.6289   19.0211    5.6849 H   0  0  0  0  0  0  0  0  0  0  0  0
   23.7294   17.7328    4.4371 H   0  0  0  0  0  0  0  0  0  0  0  0
   22.3447   18.8771    4.4371 H   0  0  0  0  0  0  0  0  0  0  0  0
   22.5061   17.5956    7.0313 H   0  0  0  0  0  0  0  0  0  0  0  0
   22.5427   16.3326    5.7707 H   0  0  0  0  0  0  0  0  0  0  0  0
   14.4696   13.4570    1.9979 H   0  0  0  0  0  0  0  0  0  0  0  0
   15.5215   12.0144    2.2597 H   0  0  0  0  0  0  0  0  0  0  0  0
   13.3934   11.7261    3.4372 H   0  0  0  0  0  0  0  0  0  0  0  0
   14.7501   11.9134    4.6177 H   0  0  0  0  0  0  0  0  0  0  0  0
   13.2456   13.2598    5.5423 H   0  0  0  0  0  0  0  0  0  0  0  0
   14.0130   15.4359    3.5439 H   0  0  0  0  0  0  0  0  0  0  0  0
   14.0301   15.4787    5.3554 H   0  0  0  0  0  0  0  0  0  0  0  0
   16.3151   15.5159    4.4565 H   0  0  0  0  0  0  0  0  0  0  0  0
   15.9852   13.9896    5.3692 H   0  0  0  0  0  0  0  0  0  0  0  0
  2  1  2  0
  3  1  2  0
  5  4  2  0
  6  5  1  0
  7  6  2  0
  7  1  1  0
  8  7  1  0
  9  8  2  0
  9  4  1  0
 10  9  1  0
 11  4  1  0
 13 11  1  0
 13 12  1  0
 14  1  1  0
 15 14  1  0
 16 15  1  0
 17 16  1  0
 18 17  1  0
 19 18  1  0
 19 14  1  0
 20 17  1  0
 21 20  2  0
 22 20  1  0
  5 23  1  0
  6 24  1  0
  8 25  1  0
 10 26  1  0
 10 27  1  0
 10 28  1  0
 12 29  1  0
 12 30  1  0
 12 31  1  0
 13 32  1  0
 13 33  1  0
 15 34  1  0
 15 35  1  0
 16 36  1  0
 16 37  1  0
 17 38  1  0
 18 39  1  0
 18 40  1  0
 19 41  1  0
 19 42  1  0
M  CHG  1  22  -1
M  END
$$$$
=
     RDKit          3D

 29 29  0  0  0  0  0  0  0  0999 V2000
   18.5030   14.1480    3.6570 C   0  0  0  0  0  0  0  0  0  0  0  0
   18.7770   15.4150    4.3820 N   0  0  2  0  0  4  0  0  0  0  0  0
   17.9010   15.6400    5.5760 C   0  0  0  0  0  0  0  0  0  0  0  0
   17.4750   17.0980    5.7000 C   0  0  0  0  0  0  0  0  0  0  0  0
   18.6620   18.0450    5.5920 C   0  0  0  0  0  0  0  0  0  0  0  0
   19.4560   17.8410    4.2910 C   0  0  2  0  0  0  0  0  0  0  0  0
   19.0170   16.5900    3.5000 C   0  0  0  0  0  0  0  0  0  0  0  0
   20.9970   17.9920    4.4320 C   0  0  0  0  0  0  0  0  0  0  0  0
   21.6690   17.6260    5.7610 C   0  0  0  0  0  0  0  0  0  0  0  0
   21.6760   16.1460    6.0930 C   0  0  0  0  0  0  0  0  0  0  0  0
   21.3110   15.8280    7.2510 O   0  0  0  0  0  0  0  0  0  0  0  0
   21.8870   15.3730    5.1070 O   0  0  0  0  0  1  0  0  0  0  0  0
   18.3284   13.3404    4.3832 H   0  0  0  0  0  0  0  0  0  0  0  0
   17.6110   14.2725    3.0254 H   0  0  0  0  0  0  0  0  0  0  0  0
   19.3667   13.8928    3.0254 H   0  0  0  0  0  0  0  0  0  0  0  0
   19.7029   15.2834    4.8136 H   0  0  0  0  0  0  0  0  0  0  0  0
   17.0019   15.0134    5.4809 H   0  0  0  0  0  0  0  0  0  0  0  0
   18.4753   15.3743    6.4758 H   0  0  0  0  0  0  0  0  0  0  0  0
   16.7604   17.3297    4.8965 H   0  0  0  0  0  0  0  0  0  0  0  0
   17.0157   17.2370    6.6898 H   0  0  0  0  0  0  0  0  0  0  0  0
   18.2920   19.0805    5.6218 H   0  0  0  0  0  0  0  0  0  0  0  0
   19.3374   17.8348    6.4344 H   0  0  0  0  0  0  0  0  0  0  0  0
   19.1744   18.6994    3.6635 H   0  0  0  0  0  0  0  0  0  0  0  0
   19.8062   16.3340    2.7778 H   0  0  0  0  0  0  0  0  0  0  0  0
   18.0695   16.8286    2.9947 H   0  0  0  0  0  0  0  0  0  0  0  0
   21.4536   17.3592    3.6567 H   0  0  0  0  0  0  0  0  0  0  0  0
   21.1611   19.0764    4.3474 H   0  0  0  0  0  0  0  0  0  0  0  0
   22.7127   17.9712    5.7214 H   0  0  0  0  0  0  0  0  0  0  0  0
   21.0756   18.1135    6.5485 H   0  0  0  0  0  0  0  0  0  0  0  0
  2  1  1  0
  3  2  1  0
  4  3  1  0
  5  4  1  0
  6  5  1  0
  7  2  1  0
  7  6  1  0
  8  6  1  0
  9  8  1  0
 10  9  1  0
 11 10  2  0
 12 10  1  0
  1 13  1  0
  1 14  1  0
  1 15  1  0
  2 16  1  1
  3 17  1  0
  3 18  1  0
  4 19  1  0
  4 20  1  0
  5 21  1  0
  5 22  1  0
  6 23  1  6
  7 24  1  0
  7 25  1  0
  8 26  1  0
  8 27  1  0
  9 28  1  0
  9 29  1  0
M  CHG  2   2   1  12  -1
M  END
$$$$
=
     RDKit          3D

 31 32  0  0  0  0  0  0  0  0999 V2000
   17.2870   17.6660    6.0690 C   0  0  0  0  0  0  0  0  0  0  0  0
   17.0800   16.4210    5.2550 C   0  0  0  0  0  0  0  0  0  0  0  0
   15.7720   15.9170    5.1500 C   0  0  0  0  0  0  0  0  0  0  0  0
   15.4910   14.8020    4.3540 C   0  0  0  0  0  0  0  0  0  0  0  0
   16.5050   14.1490    3.6390 C   0  0  0  0  0  0  0  0  0  0  0  0
   17.8170   14.6340    3.7590 C   0  0  0  0  0  0  0  0  0  0  0  0
   18.1050   15.7450    4.5700 C   0  0  0  0  0  0  0  0  0  0  0  0
   19.4620   16.1570    4.6620 N   0  0  0  0  0  0  0  0  0  0  0  0
   20.1050   17.0290    3.7890 C   0  0  0  0  0  0  0  0  0  0  0  0
   19.4320   17.6730    2.6250 C   0  0  0  0  0  0  0  0  0  0  0  0
   21.4020   17.1990    4.2320 C   0  0  0  0  0  0  0  0  0  0  0  0
   21.5750   16.4000    5.3780 C   0  0  0  0  0  0  0  0  0  0  0  0
   20.3860   15.7360    5.6140 C   0  0  0  0  0  0  0  0  0  0  0  0
   20.1120   14.6880    6.6360 C   0  0  0  0  0  0  0  0  0  0  0  0
   16.1930   12.9490    2.7650 C   0  0  0  0  0  0  0  0  0  0  0  0
   14.9930   12.8230    2.3640 O   0  0  0  0  0  0  0  0  0  0  0  0
   17.1530   12.1590    2.5030 O   0  0  0  0  0  1  0  0  0  0  0  0
   17.2453   17.4155    7.1393 H   0  0  0  0  0  0  0  0  0  0  0  0
   18.2696   18.0999    5.8320 H   0  0  0  0  0  0  0  0  0  0  0  0
   16.4977   18.3945    5.8320 H   0  0  0  0  0  0  0  0  0  0  0  0
   14.9568   16.4072    5.7025 H   0  0  0  0  0  0  0  0  0  0  0  0
   14.4575   14.4312    4.2878 H   0  0  0  0  0  0  0  0  0  0  0  0
   18.6310   14.1374    3.2105 H   0  0  0  0  0  0  0  0  0  0  0  0
   18.6814   18.3912    2.9867 H   0  0  0  0  0  0  0  0  0  0  0  0
   20.1799   18.2004    2.0147 H   0  0  0  0  0  0  0  0  0  0  0  0
   18.9380   16.9026    2.0147 H   0  0  0  0  0  0  0  0  0  0  0  0
   22.1645   17.8442    3.7712 H   0  0  0  0  0  0  0  0  0  0  0  0
   22.4929   16.3186    5.9787 H   0  0  0  0  0  0  0  0  0  0  0  0
   20.2246   15.1185    7.6420 H   0  0  0  0  0  0  0  0  0  0  0  0
   19.0856   14.3129    6.5105 H   0  0  0  0  0  0  0  0  0  0  0  0
   20.8235   13.8585    6.5105 H   0  0  0  0  0  0  0  0  0  0  0  0
  2  1  1  0
  3  2  2  0
  4  3  1  0
  5  4  2  0
  6  5  1  0
  7  6  2  0
  7  2  1  0
  8  7  1  0
  9  8  1  0
 10  9  1  0
 11  9  2  0
 12 11  1  0
 13  8  1  0
 13 12  2  0
 14 13  1  0
 15  5  1  0
 16 15  2  0
 17 15  1  0
  1 18  1  0
  1 19  1  0
  1 20  1  0
  3 21  1  0
  4 22  1  0
  6 23  1  0
 10 24  1  0
 10 25  1  0
 10 26  1  0
 11 27  1  0
 12 28  1  0
 14 29  1  0
 14 30  1  0
 14 31  1  0
M  CHG  1  17  -1
M  END
$$$$
=
     RDKit          3D

 57 58  0  0  0  0  0  0  0  0999 V2000
   12.7160   14.2360    4.5310 C   0  0  1  0  0  0  0  0  0  0  0  0
   12.0240   13.8130    3.2320 C   0  0  0  0  0  0  0  0  0  0  0  0
   10.5290   13.8650    3.5700 C   0  0  2  0  0  0  0  0  0  0  0  0
   10.4900   13.7370    5.0400 N   0  0  0  0  0  0  0  0  0  0  0  0
   11.8160   13.5960    5.5880 C   0  0  0  0  0  0  0  0  0  0  0  0
    9.3530   13.5960    5.7870 C   0  0  0  0  0  0  0  0  0  0  0  0
    9.3590   13.3890    6.9960 O   0  0  0  0  0  0  0  0  0  0  0  0
    9.8500   12.7450    2.7330 C   0  0  0  0  0  0  0  0  0  0  0  0
    8.8900   13.1450    2.0090 O   0  0  0  0  0  0  0  0  0  0  0  0
   10.3450   11.5850    2.8390 O   0  0  0  0  0  1  0  0  0  0  0  0
   14.0350   13.7170    4.6490 O   0  0  0  0  0  0  0  0  0  0  0  0
   18.5910   17.1120    4.5100 C   0  0  0  0  0  0  0  0  0  0  0  0
   17.3910   16.2160    4.5820 C   0  0  0  0  0  0  0  0  0  0  0  0
   16.2700   16.5930    5.3150 C   0  0  0  0  0  0  0  0  0  0  0  0
   15.1460   15.7710    5.3490 C   0  0  0  0  0  0  0  0  0  0  0  0
   15.1150   14.5590    4.6450 C   0  0  0  0  0  0  0  0  0  0  0  0
   16.2310   14.1570    3.8690 C   0  0  0  0  0  0  0  0  0  0  0  0
   17.3550   15.0150    3.8590 C   0  0  0  0  0  0  0  0  0  0  0  0
   16.2370   12.8390    3.0520 C   0  0  0  0  0  0  0  0  0  0  0  0
   17.6520   12.2160    3.0330 C   0  0  0  0  0  0  0  0  0  0  0  0
   15.2970   11.7440    3.6260 C   0  0  0  0  0  0  0  0  0  0  0  0
   15.7540   13.0950    1.6060 C   0  0  0  0  0  0  0  0  0  0  0  0
    8.2390   13.7690    5.0360 O   0  0  0  0  0  0  0  0  0  0  0  0
    7.0150   13.0570    5.3290 C   0  0  0  0  0  0  0  0  0  0  0  0
    6.1640   13.8140    6.3540 C   0  0  0  0  0  0  0  0  0  0  0  0
    6.2580   13.0200    3.9930 C   0  0  0  0  0  0  0  0  0  0  0  0
    7.2980   11.6170    5.7710 C   0  0  0  0  0  0  0  0  0  0  0  0
   12.8326   15.3272    4.6070 H   0  0  0  0  0  0  0  0  0  0  0  0
   12.2644   14.5109    2.4164 H   0  0  0  0  0  0  0  0  0  0  0  0
   12.3445   12.8187    2.8876 H   0  0  0  0  0  0  0  0  0  0  0  0
    9.9733   14.7787    3.3126 H   0  0  0  0  0  0  0  0  0  0  0  0
   11.9016   14.1253    6.5485 H   0  0  0  0  0  0  0  0  0  0  0  0
   12.0817   12.5491    5.7962 H   0  0  0  0  0  0  0  0  0  0  0  0
   18.9244   17.3609    5.5283 H   0  0  0  0  0  0  0  0  0  0  0  0
   19.4019   16.5966    3.9744 H   0  0  0  0  0  0  0  0  0  0  0  0
   18.3272   18.0359    3.9744 H   0  0  0  0  0  0  0  0  0  0  0  0
   16.2714   17.5431    5.8693 H   0  0  0  0  0  0  0  0  0  0  0  0
   14.2688   16.0777    5.9376 H   0  0  0  0  0  0  0  0  0  0  0  0
   18.2337   14.7297    3.2619 H   0  0  0  0  0  0  0  0  0  0  0  0
   17.9992   12.0631    4.0655 H   0  0  0  0  0  0  0  0  0  0  0  0
   17.6198   11.2488    2.5100 H   0  0  0  0  0  0  0  0  0  0  0  0
   18.3436   12.8928    2.5100 H   0  0  0  0  0  0  0  0  0  0  0  0
   15.3247   11.7763    4.7252 H   0  0  0  0  0  0  0  0  0  0  0  0
   14.2688   11.9251    3.2797 H   0  0  0  0  0  0  0  0  0  0  0  0
   15.6317   10.7550    3.2797 H   0  0  0  0  0  0  0  0  0  0  0  0
   14.7823   13.6100    1.6298 H   0  0  0  0  0  0  0  0  0  0  0  0
   16.4886   13.7221    1.0797 H   0  0  0  0  0  0  0  0  0  0  0  0
   15.6474   12.1350    1.0797 H   0  0  0  0  0  0  0  0  0  0  0  0
    6.4787   13.5341    7.3702 H   0  0  0  0  0  0  0  0  0  0  0  0
    6.2981   14.8968    6.2138 H   0  0  0  0  0  0  0  0  0  0  0  0
    5.1042   13.5546    6.2138 H   0  0  0  0  0  0  0  0  0  0  0  0
    5.1763   12.9671    4.1858 H   0  0  0  0  0  0  0  0  0  0  0  0
    6.4839   13.9303    3.4182 H   0  0  0  0  0  0  0  0  0  0  0  0
    6.5716   12.1361    3.4182 H   0  0  0  0  0  0  0  0  0  0  0  0
    7.3080   11.5660    6.8698 H   0  0  0  0  0  0  0  0  0  0  0  0
    6.5133   10.9526    5.3802 H   0  0  0  0  0  0  0  0  0  0  0  0
    8.2758   11.2990    5.3802 H   0  0  0  0  0  0  0  0  0  0  0  0
  2  1  1  0
  3  2  1  0
  4  3  1  0
  5  4  1  0
  5  1  1  0
  6  4  1  0
  7  6  2  0
  8  3  1  0
  9  8  2  0
 10  8  1  0
 11  1  1  0
 13 12  1  0
 14 13  2  0
 15 14  1  0
 16 15  2  0
 16 11  1  0
 17 16  1  0
 18 17  2  0
 18 13  1  0
 19 17  1  0
 20 19  1  0
 21 19  1  0
 22 19  1  0
 23  6  1  0
 24 23  1  0
 25 24  1  0
 26 24  1  0
 27 24  1  0
  1 28  1  1
  2 29  1  0
  2 30  1  0
  3 31  1  1
  5 32  1  0
  5 33  1  0
 12 34  1  0
 12 35  1  0
 12 36  1  0
 14 37  1  0
 15 38  1  0
 18 39  1  0
 20 40  1  0
 20 41  1  0
 20 42  1  0
 21 43  1  0
 21 44  1  0
 21 45  1  0
 22 46  1  0
 22 47  1  0
 22 48  1  0
 25 49  1  0
 25 50  1  0
 25 51  1  0
 26 52  1  0
 26 53  1  0
 26 54  1  0
 27 55  1  0
 27 56  1  0
 27 57  1  0
M  CHG  1  10  -1
M  END
$$$$
=
     RDKit          3D

 33 32  0  0  0  0  0  0  0  0999 V2000
   17.2790   13.9160    3.6520 C   0  0  2  0  0  0  0  0  0  0  0  0
   19.1610   14.9080    5.6400 O   0  0  0  0  0  0  0  0  0  0  0  0
   19.2980   15.1430    4.4470 C   0  0  0  0  0  0  0  0  0  0  0  0
   18.4800   14.7370    3.4490 N   0  0  0  0  0  0  0  0  0  0  0  0
   20.2960   15.8970    3.9200 O   0  0  0  0  0  0  0  0  0  0  0  0
   20.1360   17.3210    3.7460 C   0  0  0  0  0  0  0  0  0  0  0  0
   19.6010   17.6610    2.3500 C   0  0  0  0  0  0  0  0  0  0  0  0
   19.2700   17.9300    4.8550 C   0  0  0  0  0  0  0  0  0  0  0  0
   21.5590   17.8900    3.8730 C   0  0  0  0  0  0  0  0  0  0  0  0
   17.2270   12.5550    2.8770 C   0  0  0  0  0  0  0  0  0  0  0  0
   16.2760   12.3900    2.0540 O   0  0  0  0  0  0  0  0  0  0  0  0
   18.1440   11.7260    3.1810 O   0  0  0  0  0  1  0  0  0  0  0  0
   16.0120   14.6710    3.2050 C   0  0  0  0  0  0  0  0  0  0  0  0
   15.0960   15.0910    4.3460 C   0  0  0  0  0  0  0  0  0  0  0  0
   13.7680   14.8890    4.2860 C   0  0  0  0  0  0  0  0  0  0  0  0
   15.7200   15.8150    5.5730 C   0  0  0  0  0  0  0  0  0  0  0  0
   16.2330   16.9480    5.3380 O   0  0  0  0  0  0  0  0  0  0  0  0
   15.6500   15.1940    6.6760 O   0  0  0  0  0  1  0  0  0  0  0  0
   17.3230   13.7052    4.7307 H   0  0  0  0  0  0  0  0  0  0  0  0
   18.7138   15.0212    2.4870 H   0  0  0  0  0  0  0  0  0  0  0  0
   18.6761   18.2488    2.4449 H   0  0  0  0  0  0  0  0  0  0  0  0
   20.3533   18.2471    1.8017 H   0  0  0  0  0  0  0  0  0  0  0  0
   19.3898   16.7310    1.8017 H   0  0  0  0  0  0  0  0  0  0  0  0
   19.6765   17.6441    5.8363 H   0  0  0  0  0  0  0  0  0  0  0  0
   19.2727   19.0261    4.7622 H   0  0  0  0  0  0  0  0  0  0  0  0
   18.2394   17.5567    4.7622 H   0  0  0  0  0  0  0  0  0  0  0  0
   21.8188   17.9939    4.9368 H   0  0  0  0  0  0  0  0  0  0  0  0
   22.2715   17.2076    3.3865 H   0  0  0  0  0  0  0  0  0  0  0  0
   21.6046   18.8755    3.3865 H   0  0  0  0  0  0  0  0  0  0  0  0
   16.3238   15.5760    2.6630 H   0  0  0  0  0  0  0  0  0  0  0  0
   15.4352   13.9742    2.5791 H   0  0  0  0  0  0  0  0  0  0  0  0
   13.1259   15.2009    5.1229 H   0  0  0  0  0  0  0  0  0  0  0  0
   13.3237   14.4118    3.4000 H   0  0  0  0  0  0  0  0  0  0  0  0
  3  2  2  0
  4  3  1  0
  4  1  1  0
  5  3  1  0
  6  5  1  0
  7  6  1  0
  8  6  1  0
  9  6  1  0
 10  1  1  0
 11 10  2  0
 12 10  1  0
 13  1  1  0
 14 13  1  0
 15 14  2  3
 16 14  1  0
 17 16  2  0
 18 16  1  0
  1 19  1  1
  4 20  1  0
  7 21  1  0
  7 22  1  0
  7 23  1  0
  8 24  1  0
  8 25  1  0
  8 26  1  0
  9 27  1  0
  9 28  1  0
  9 29  1  0
 13 30  1  0
 13 31  1  0
 15 32  1  0
 15 33  1  0
M  CHG  2  12  -1  18  -1
M  END
$$$$
=
     RDKit          3D

 20 21  0  0  0  0  0  0  0  0999 V2000
   16.8050   13.8170    3.3450 C   0  0  0  0  0  0  0  0  0  0  0  0
   16.8690   12.6690    2.5490 C   0  0  0  0  0  0  0  0  0  0  0  0
   15.6750   12.0750    2.4350 N   0  0  0  0  0  0  0  0  0  0  0  0
   14.8650   12.8780    3.1600 N   0  0  0  0  0  0  0  0  0  0  0  0
   15.4960   13.9320    3.7610 C   0  0  0  0  0  0  0  0  0  0  0  0
   14.6090   15.0610    4.7600 S   0  0  0  0  0  6  0  0  0  0  0  0
   14.3530   16.2350    3.9600 O   0  0  0  0  0  0  0  0  0  0  0  0
   15.1610   15.0430    6.0920 O   0  0  0  0  0  0  0  0  0  0  0  0
   13.0940   14.2930    4.9510 N   0  0  0  0  0  0  0  0  0  0  0  0
   12.5850   13.6790    3.7140 C   0  0  0  0  0  0  0  0  0  0  0  0
   13.4680   12.5140    3.2890 C   0  0  0  0  0  0  0  0  0  0  0  0
   17.6810   15.9310    4.0360 O   0  0  0  0  0  1  0  0  0  0  0  0
   17.9850   14.7600    3.6720 C   0  0  0  0  0  0  0  0  0  0  0  0
   19.1430   14.2660    3.5330 O   0  0  0  0  0  0  0  0  0  0  0  0
   17.7895   12.2989    2.0739 H   0  0  0  0  0  0  0  0  0  0  0  0
   13.1899   13.5565    5.6646 H   0  0  0  0  0  0  0  0  0  0  0  0
   11.5623   13.3127    3.8870 H   0  0  0  0  0  0  0  0  0  0  0  0
   12.5893   14.4358    2.9157 H   0  0  0  0  0  0  0  0  0  0  0  0
   13.3819   11.7165    4.0417 H   0  0  0  0  0  0  0  0  0  0  0  0
   13.1219   12.1839    2.2984 H   0  0  0  0  0  0  0  0  0  0  0  0
  2  1  1  0
  3  2  2  0
  4  3  1  0
  5  4  1  0
  5  1  2  0
  6  5  1  0
  7  6  2  0
  8  6  2  0
  9  6  1  0
 10  9  1  0
 11 10  1  0
 11  4  1  0
 13 12  1  0
 13  1  1  0
 14 13  2  0
  2 15  1  0
  9 16  1  0
 10 17  1  0
 10 18  1  0
 11 19  1  0
 11 20  1  0
M  CHG  1  12  -1
M  END
$$$$
=
     RDKit          3D

 39 42  0  0  0  0  0  0  0  0999 V2000
   19.4950   15.8190    4.5380 N   0  0  0  0  0  0  0  0  0  0  0  0
   18.7750   16.8450    5.1850 C   0  0  0  0  0  0  0  0  0  0  0  0
   19.3380   17.7950    5.7400 O   0  0  0  0  0  0  0  0  0  0  0  0
   17.3740   16.7760    5.1310 N   0  0  0  0  0  0  0  0  0  0  0  0
   16.5670   17.7810    5.7920 C   0  0  0  0  0  0  0  0  0  0  0  0
   16.7760   15.6900    4.5380 C   0  0  0  0  0  0  0  0  0  0  0  0
   17.5230   14.7070    3.9580 C   0  0  0  0  0  0  0  0  0  0  0  0
   18.9370   14.7090    3.8960 C   0  0  0  0  0  0  0  0  0  0  0  0
   19.5580   13.8460    3.2810 O   0  0  0  0  0  0  0  0  0  0  0  0
   16.6090   13.8280    3.5300 N   0  0  0  0  0  0  0  0  0  0  0  0
   16.6200   12.5470    2.8770 C   0  0  0  0  0  0  0  0  0  0  0  0
   15.1130   12.2310    2.8200 C   0  0  0  0  0  0  0  0  0  0  0  0
   14.4270   13.4070    3.4010 N   0  0  0  0  0  0  0  0  0  0  0  0
   15.3600   14.2890    3.8260 C   0  0  0  0  0  0  0  0  0  0  0  0
   15.4230   15.4480    4.4400 N   0  0  0  0  0  0  0  0  0  0  0  0
   13.0360   13.4830    3.5260 C   0  0  0  0  0  0  0  0  0  0  0  0
   12.4220   14.3170    4.4790 C   0  0  0  0  0  0  0  0  0  0  0  0
   11.0290   14.3930    4.6090 C   0  0  0  0  0  0  0  0  0  0  0  0
   10.2080   13.6320    3.7860 C   0  0  0  0  0  0  0  0  0  0  0  0
   10.7820   12.7980    2.8360 C   0  0  0  0  0  0  0  0  0  0  0  0
   12.1770   12.7280    2.7120 C   0  0  0  0  0  0  0  0  0  0  0  0
   20.9480   15.7800    4.7360 C   0  0  0  0  0  0  0  0  0  0  0  0
   22.1950   16.4910    6.6220 O   0  0  0  0  0  1  0  0  0  0  0  0
   21.3710   15.6210    6.2130 C   0  0  0  0  0  0  0  0  0  0  0  0
   20.8630   14.6450    6.8400 O   0  0  0  0  0  0  0  0  0  0  0  0
   16.6590   17.6664    6.8821 H   0  0  0  0  0  0  0  0  0  0  0  0
   16.9149   18.7822    5.4979 H   0  0  0  0  0  0  0  0  0  0  0  0
   15.5143   17.6576    5.4979 H   0  0  0  0  0  0  0  0  0  0  0  0
   17.0574   12.6111    1.8697 H   0  0  0  0  0  0  0  0  0  0  0  0
   17.2237   11.7831    3.3888 H   0  0  0  0  0  0  0  0  0  0  0  0
   14.7937   12.0782    1.7785 H   0  0  0  0  0  0  0  0  0  0  0  0
   14.8732   11.3109    3.3730 H   0  0  0  0  0  0  0  0  0  0  0  0
   13.0542   14.9269    5.1411 H   0  0  0  0  0  0  0  0  0  0  0  0
   10.5841   15.0570    5.3647 H   0  0  0  0  0  0  0  0  0  0  0  0
    9.1141   13.6897    3.8861 H   0  0  0  0  0  0  0  0  0  0  0  0
   10.1413   12.1910    2.1794 H   0  0  0  0  0  0  0  0  0  0  0  0
   12.6117   12.0607    1.9532 H   0  0  0  0  0  0  0  0  0  0  0  0
   21.3532   14.9311    4.1657 H   0  0  0  0  0  0  0  0  0  0  0  0
   21.3448   16.7462    4.3910 H   0  0  0  0  0  0  0  0  0  0  0  0
  2  1  1  0
  3  2  2  0
  4  2  1  0
  5  4  1  0
  6  4  1  0
  7  6  2  0
  8  7  1  0
  8  1  1  0
  9  8  2  0
 10  7  1  0
 11 10  1  0
 12 11  1  0
 13 12  1  0
 14 13  1  0
 14 10  1  0
 15 14  2  0
 15  6  1  0
 16 13  1  0
 17 16  2  0
 18 17  1  0
 19 18  2  0
 20 19  1  0
 21 20  2  0
 21 16  1  0
 22  1  1  0
 24 22  1  0
 24 23  1  0
 25 24  2  0
  5 26  1  0
  5 27  1  0
  5 28  1  0
 11 29  1  0
 11 30  1  0
 12 31  1  0
 12 32  1  0
 17 33  1  0
 18 34  1  0
 19 35  1  0
 20 36  1  0
 21 37  1  0
 22 38  1  0
 22 39  1  0
M  CHG  1  23  -1
M  END
$$$$
=
     RDKit          3D

 57 59  0  0  0  0  0  0  0  0999 V2000
   25.8300   27.5110   15.1470 C   0  0  0  0  0  0  0  0  0  0  0  0
   27.0560   27.1760   14.5990 C   0  0  0  0  0  0  0  0  0  0  0  0
   27.1320   26.3980   13.4320 C   0  0  0  0  0  0  0  0  0  0  0  0
   25.9430   25.9220   12.8040 C   0  0  0  0  0  0  0  0  0  0  0  0
   24.6560   26.3100   13.2860 C   0  0  0  0  0  0  0  0  0  0  0  0
   24.6580   27.0660   14.5070 C   0  0  0  0  0  0  0  0  0  0  0  0
   23.4690   25.9030   12.5270 C   0  0  0  0  0  0  0  0  0  0  0  0
   22.1370   26.3350   12.7810 C   0  0  0  0  0  0  0  0  0  0  0  0
   21.0220   25.8930   12.0520 C   0  0  0  0  0  0  0  0  0  0  0  0
   21.2050   24.9940   10.9960 C   0  0  0  0  0  0  0  0  0  0  0  0
   22.4990   24.5790   10.6870 C   0  0  0  0  0  0  0  0  0  0  0  0
   23.6110   25.0300   11.4230 C   0  0  0  0  0  0  0  0  0  0  0  0
   24.8750   24.6010   11.0390 C   0  0  0  0  0  0  0  0  0  0  0  0
   26.0100   25.0510   11.7020 C   0  0  0  0  0  0  0  0  0  0  0  0
   26.7810   28.4330   17.1420 C   0  0  0  0  0  0  0  0  0  0  0  0
   25.6640   28.2720   16.2750 O   0  0  0  0  0  0  0  0  0  0  0  0
   23.4630   27.3980   15.1170 O   0  0  0  0  0  0  0  0  0  0  0  0
   23.1590   26.4540   16.1480 C   0  0  0  0  0  0  0  0  0  0  0  0
   19.7290   26.2910   12.2880 O   0  0  0  0  0  0  0  0  0  0  0  0
   19.3850   27.6390   12.0000 C   0  0  0  0  0  0  0  0  0  0  0  0
   20.0760   24.6000   10.3270 O   0  0  0  0  0  0  0  0  0  0  0  0
   19.6160   23.2730   10.5250 C   0  0  0  0  0  0  0  0  0  0  0  0
   28.5280   26.1550   12.8680 C   0  0  0  0  0  0  0  0  0  0  0  0
   29.6140   26.0140   13.9500 C   0  0  0  0  0  0  0  0  0  0  0  0
   29.9560   24.5700   14.2720 N   0  0  2  0  0  4  0  0  0  0  0  0
   28.9820   23.6320   13.6150 C   0  0  0  0  0  0  0  0  0  0  0  0
   29.9640   24.3020   15.8000 C   0  0  0  0  0  0  0  0  0  0  0  0
   28.9400   25.1100   16.6370 C   0  0  0  0  0  0  0  0  0  0  0  0
   29.4270   26.1140   17.2200 O   0  0  0  0  0  0  0  0  0  0  0  0
   27.8020   24.5710   16.7080 O   0  0  0  0  0  1  0  0  0  0  0  0
   27.9811   27.5228   15.0827 H   0  0  0  0  0  0  0  0  0  0  0  0
   21.9719   27.0563   13.5949 H   0  0  0  0  0  0  0  0  0  0  0  0
   22.6549   23.8834    9.8492 H   0  0  0  0  0  0  0  0  0  0  0  0
   24.9786   23.8968   10.2003 H   0  0  0  0  0  0  0  0  0  0  0  0
   26.9969   24.7137   11.3522 H   0  0  0  0  0  0  0  0  0  0  0  0
   26.4434   28.3843   18.1878 H   0  0  0  0  0  0  0  0  0  0  0  0
   27.5096   27.6306   16.9542 H   0  0  0  0  0  0  0  0  0  0  0  0
   27.2533   29.4085   16.9542 H   0  0  0  0  0  0  0  0  0  0  0  0
   23.3102   26.9235   17.1312 H   0  0  0  0  0  0  0  0  0  0  0  0
   22.1116   26.1316   16.0528 H   0  0  0  0  0  0  0  0  0  0  0  0
   23.8214   25.5810   16.0528 H   0  0  0  0  0  0  0  0  0  0  0  0
   19.2442   28.1906   12.9412 H   0  0  0  0  0  0  0  0  0  0  0  0
   20.1925   28.1071   11.4179 H   0  0  0  0  0  0  0  0  0  0  0  0
   18.4520   27.6630   11.4179 H   0  0  0  0  0  0  0  0  0  0  0  0
   19.5445   23.0667   11.6031 H   0  0  0  0  0  0  0  0  0  0  0  0
   18.6248   23.1557   10.0627 H   0  0  0  0  0  0  0  0  0  0  0  0
   20.3220   22.5674   10.0627 H   0  0  0  0  0  0  0  0  0  0  0  0
   28.5068   25.2295   12.2739 H   0  0  0  0  0  0  0  0  0  0  0  0
   28.7888   27.0352   12.2621 H   0  0  0  0  0  0  0  0  0  0  0  0
   30.5257   26.5187   13.5977 H   0  0  0  0  0  0  0  0  0  0  0  0
   29.2184   26.4685   14.8703 H   0  0  0  0  0  0  0  0  0  0  0  0
   30.9036   24.4016   13.9053 H   0  0  0  0  0  0  0  0  0  0  0  0
   28.4180   23.0888   14.3876 H   0  0  0  0  0  0  0  0  0  0  0  0
   28.2847   24.2073   12.9884 H   0  0  0  0  0  0  0  0  0  0  0  0
   29.5307   22.9135   12.9884 H   0  0  0  0  0  0  0  0  0  0  0  0
   29.7567   23.2329   15.9552 H   0  0  0  0  0  0  0  0  0  0  0  0
   30.9550   24.6242   16.1523 H   0  0  0  0  0  0  0  0  0  0  0  0
  2  1  2  0
  3  2  1  0
  4  3  2  0
  5  4  1  0
  6  5  2  0
  6  1  1  0
  7  5  1  0
  8  7  2  0
  9  8  1  0
 10  9  2  0
 11 10  1  0
 12 11  2  0
 12  7  1  0
 13 12  1  0
 14 13  2  0
 14  4  1  0
 16  1  1  0
 16 15  1  0
 17  6  1  0
 18 17  1  0
 19  9  1  0
 20 19  1  0
 21 10  1  0
 22 21  1  0
 23  3  1  0
 24 23  1  0
 25 24  1  0
 26 25  1  0
 27 25  1  0
 28 27  1  0
 29 28  2  0
 30 28  1  0
  2 31  1  0
  8 32  1  0
 11 33  1  0
 13 34  1  0
 14 35  1  0
 15 36  1  0
 15 37  1  0
 15 38  1  0
 18 39  1  0
 18 40  1  0
 18 41  1  0
 20 42  1  0
 20 43  1  0
 20 44  1  0
 22 45  1  0
 22 46  1  0
 22 47  1  0
 23 48  1  0
 23 49  1  0
 24 50  1  0
 24 51  1  0
 25 52  1  6
 26 53  1  0
 26 54  1  0
 26 55  1  0
 27 56  1  0
 27 57  1  0
M  CHG  2  25   1  30  -1
M  END
$$$$
=
     RDKit          3D

 17 17  0  0  0  0  0  0  0  0999 V2000
   20.9630   17.8440    4.7520 C   0  0  0  0  0  0  0  0  0  0  0  0
   22.0780   18.6490    4.6520 C   0  0  0  0  0  0  0  0  0  0  0  0
   22.9790   18.1430    5.6010 C   0  0  0  0  0  0  0  0  0  0  0  0
   22.4860   17.1020    6.2730 N   0  0  0  0  0  0  0  0  0  0  0  0
   21.2670   16.9090    5.7110 N   0  0  0  0  0  0  0  0  0  0  0  0
   20.4540   15.8080    6.1730 C   0  0  0  0  0  0  0  0  0  0  0  0
   19.6600   17.9040    4.0070 C   0  0  0  0  0  0  0  0  0  0  0  0
   19.8580   17.7520    1.6430 O   0  0  0  0  0  1  0  0  0  0  0  0
   19.6910   17.0860    2.7050 C   0  0  0  0  0  0  0  0  0  0  0  0
   19.5040   15.8410    2.8510 O   0  0  0  0  0  0  0  0  0  0  0  0
   22.2285   19.5028    3.9750 H   0  0  0  0  0  0  0  0  0  0  0  0
   23.9826   18.5595    5.7721 H   0  0  0  0  0  0  0  0  0  0  0  0
   20.4447   15.7954    7.2729 H   0  0  0  0  0  0  0  0  0  0  0  0
   19.4266   15.9286    5.7990 H   0  0  0  0  0  0  0  0  0  0  0  0
   20.8716   14.8616    5.7990 H   0  0  0  0  0  0  0  0  0  0  0  0
   18.8642   17.5073    4.6546 H   0  0  0  0  0  0  0  0  0  0  0  0
   19.4751   18.9546    3.7387 H   0  0  0  0  0  0  0  0  0  0  0  0
  2  1  2  0
  3  2  1  0
  4  3  2  0
  5  1  1  0
  5  4  1  0
  6  5  1  0
  7  1  1  0
  9  8  1  0
  9  7  1  0
 10  9  2  0
  2 11  1  0
  3 12  1  0
  6 13  1  0
  6 14  1  0
  6 15  1  0
  7 16  1  0
  7 17  1  0
M  CHG  1   8  -1
M  END
$$$$
=
     RDKit          3D

 39 40  0  0  0  0  0  0  0  0999 V2000
   19.2910   15.2450    5.7490 C   0  0  0  0  0  0  0  0  0  0  0  0
   18.1150   15.8450    6.2090 C   0  0  0  0  0  0  0  0  0  0  0  0
   16.9160   15.6870    5.5090 C   0  0  0  0  0  0  0  0  0  0  0  0
   16.8650   14.9230    4.3330 C   0  0  0  0  0  0  0  0  0  0  0  0
   18.0450   14.3150    3.8830 C   0  0  0  0  0  0  0  0  0  0  0  0
   19.2440   14.4740    4.5830 C   0  0  0  0  0  0  0  0  0  0  0  0
   15.5470   14.7580    3.5960 C   0  0  0  0  0  0  0  0  0  0  0  0
   14.3630   14.7610    4.5810 C   0  0  0  0  0  0  0  0  0  0  0  0
   13.0880   14.2730    3.9040 C   0  0  0  0  0  0  0  0  0  0  0  0
   13.2170   12.8340    3.4030 C   0  0  0  0  0  0  0  0  0  0  0  0
   14.6600   12.3960    3.1510 C   0  0  0  0  0  0  0  0  0  0  0  0
   15.5310   13.5410    2.6430 C   0  0  0  0  0  0  0  0  0  0  0  0
   20.5900   15.3980    6.5060 C   0  0  0  0  0  0  0  0  0  0  0  0
   21.6460   16.1300    5.6720 C   0  0  0  0  0  0  0  0  0  0  0  0
   21.4060   17.6360    5.6300 C   0  0  0  0  0  0  0  0  0  0  0  0
   19.6560   18.3970    4.2120 O   0  0  0  0  0  1  0  0  0  0  0  0
   20.8990   18.2010    4.2990 C   0  0  0  0  0  0  0  0  0  0  0  0
   21.8050   18.3970    3.4400 O   0  0  0  0  0  0  0  0  0  0  0  0
   18.1337   16.4465    7.1298 H   0  0  0  0  0  0  0  0  0  0  0  0
   16.0006   16.1676    5.8845 H   0  0  0  0  0  0  0  0  0  0  0  0
   18.0271   13.7052    2.9677 H   0  0  0  0  0  0  0  0  0  0  0  0
   20.1592   13.9883    4.2136 H   0  0  0  0  0  0  0  0  0  0  0  0
   15.4325   15.6328    2.9390 H   0  0  0  0  0  0  0  0  0  0  0  0
   14.5973   14.0982    5.4271 H   0  0  0  0  0  0  0  0  0  0  0  0
   14.2014   15.7911    4.9315 H   0  0  0  0  0  0  0  0  0  0  0  0
   12.2607   14.3239    4.6271 H   0  0  0  0  0  0  0  0  0  0  0  0
   12.8981   14.9187    3.0340 H   0  0  0  0  0  0  0  0  0  0  0  0
   12.7775   12.1637    4.1563 H   0  0  0  0  0  0  0  0  0  0  0  0
   12.6930   12.7825    2.4372 H   0  0  0  0  0  0  0  0  0  0  0  0
   15.0851   12.0189    4.0929 H   0  0  0  0  0  0  0  0  0  0  0  0
   14.6448   11.6149    2.3766 H   0  0  0  0  0  0  0  0  0  0  0  0
   16.5611   13.1729    2.5275 H   0  0  0  0  0  0  0  0  0  0  0  0
   15.1052   13.8783    1.6865 H   0  0  0  0  0  0  0  0  0  0  0  0
   20.4017   15.9709    7.4260 H   0  0  0  0  0  0  0  0  0  0  0  0
   20.9722   14.3934    6.7400 H   0  0  0  0  0  0  0  0  0  0  0  0
   22.6369   15.9415    6.1108 H   0  0  0  0  0  0  0  0  0  0  0  0
   21.5851   15.7498    4.6416 H   0  0  0  0  0  0  0  0  0  0  0  0
   20.6627   17.8795    6.4034 H   0  0  0  0  0  0  0  0  0  0  0  0
   22.3919   18.0969    5.7902 H   0  0  0  0  0  0  0  0  0  0  0  0
  2  1  2  0
  3  2  1  0
  4  3  2  0
  5  4  1  0
  6  5  2  0
  6  1  1  0
  7  4  1  0
  8  7  1  0
  9  8  1  0
 10  9  1  0
 11 10  1  0
 12 11  1  0
 12  7  1  0
 13  1  1  0
 14 13  1  0
 15 14  1  0
 17 16  1  0
 17 15  1  0
 18 17  2  0
  2 19  1  0
  3 20  1  0
  5 21  1  0
  6 22  1  0
  7 23  1  0
  8 24  1  0
  8 25  1  0
  9 26  1  0
  9 27  1  0
 10 28  1  0
 10 29  1  0
 11 30  1  0
 11 31  1  0
 12 32  1  0
 12 33  1  0
 13 34  1  0
 13 35  1  0
 14 36  1  0
 14 37  1  0
 15 38  1  0
 15 39  1  0
M  CHG  1  16  -1
M  END
$$$$
=
     RDKit          3D

 43 42  0  0  0  0  0  0  0  0999 V2000
   15.8310   14.7430    3.9870 C   0  0  0  0  0  0  0  0  0  0  0  0
   15.9290   15.2140    2.7150 F   0  0  0  0  0  0  0  0  0  0  0  0
   16.3710   13.4960    3.9770 F   0  0  0  0  0  0  0  0  0  0  0  0
   14.3680   14.6950    4.4040 C   0  0  0  0  0  0  0  0  0  0  0  0
   13.7500   15.8380    3.9970 F   0  0  0  0  0  0  0  0  0  0  0  0
   14.2800   14.6820    5.7610 F   0  0  0  0  0  0  0  0  0  0  0  0
   13.6750   13.4750    3.8170 C   0  0  0  0  0  0  0  0  0  0  0  0
   13.9550   13.3900    2.4890 F   0  0  0  0  0  0  0  0  0  0  0  0
   14.1960   12.3580    4.3890 F   0  0  0  0  0  0  0  0  0  0  0  0
   12.1740   13.5400    4.0350 C   0  0  0  0  0  0  0  0  0  0  0  0
   11.7950   14.8600    4.0670 F   0  0  0  0  0  0  0  0  0  0  0  0
   11.8770   13.0630    5.2780 F   0  0  0  0  0  0  0  0  0  0  0  0
   11.3350   12.8450    2.9710 C   0  0  0  0  0  0  0  0  0  0  0  0
   11.4870   11.4900    3.1160 F   0  0  0  0  0  0  0  0  0  0  0  0
   11.8920   13.1220    1.7620 F   0  0  0  0  0  0  0  0  0  0  0  0
    9.8570   13.1940    3.0400 C   0  0  0  0  0  0  0  0  0  0  0  0
    9.6670   14.5400    2.9840 F   0  0  0  0  0  0  0  0  0  0  0  0
    9.4190   12.8530    4.3040 F   0  0  0  0  0  0  0  0  0  0  0  0
    9.0090   12.4380    2.0490 C   0  0  0  0  0  0  0  0  0  0  0  0
    8.6380   11.2290    2.5840 F   0  0  0  0  0  0  0  0  0  0  0  0
    9.7470   12.1360    0.9360 F   0  0  0  0  0  0  0  0  0  0  0  0
    7.7470   13.7990    0.5350 O   0  0  0  0  0  1  0  0  0  0  0  0
    7.7330   13.2030    1.6540 C   0  0  0  0  0  0  0  0  0  0  0  0
    6.7790   13.1600    2.4910 O   0  0  0  0  0  0  0  0  0  0  0  0
   16.6390   15.6370    4.9100 C   0  0  0  0  0  0  0  0  0  0  0  0
   16.5560   15.1730    6.1950 F   0  0  0  0  0  0  0  0  0  0  0  0
   16.0910   16.8850    4.9440 F   0  0  0  0  0  0  0  0  0  0  0  0
   18.1200   15.7480    4.5700 C   0  0  0  0  0  0  0  0  0  0  0  0
   18.2900   16.4310    3.4060 F   0  0  0  0  0  0  0  0  0  0  0  0
   18.5720   14.4830    4.3120 F   0  0  0  0  0  0  0  0  0  0  0  0
   18.9940   16.3540    5.6490 C   0  0  0  0  0  0  0  0  0  0  0  0
   18.3840   17.4700    6.1460 F   0  0  0  0  0  0  0  0  0  0  0  0
   19.1050   15.5060    6.7030 F   0  0  0  0  0  0  0  0  0  0  0  0
   20.3820   16.7770    5.1780 C   0  0  0  0  0  0  0  0  0  0  0  0
   21.2950   16.4210    6.1380 F   0  0  0  0  0  0  0  0  0  0  0  0
   20.7050   15.9960    4.0940 F   0  0  0  0  0  0  0  0  0  0  0  0
   20.6340   18.2230    4.8000 C   0  0  0  0  0  0  0  0  0  0  0  0
   19.5580   18.7480    4.1520 F   0  0  0  0  0  0  0  0  0  0  0  0
   20.7360   18.9610    5.9540 F   0  0  0  0  0  0  0  0  0  0  0  0
   21.9000   18.4040    3.9850 C   0  0  0  0  0  0  0  0  0  0  0  0
   22.4470   19.6280    4.1810 F   0  0  0  0  0  0  0  0  0  0  0  0
   22.8470   17.4920    4.2980 F   0  0  0  0  0  0  0  0  0  0  0  0
   21.6640   18.2970    2.6570 F   0  0  0  0  0  0  0  0  0  0  0  0
  2  1  1  0
  3  1  1  0
  4  1  1  0
  5  4  1  0
  6  4  1  0
  7  4  1  0
  8  7  1  0
  9  7  1  0
 10  7  1  0
 11 10  1  0
 12 10  1  0
 13 10  1  0
 14 13  1  0
 15 13  1  0
 16 13  1  0
 17 16  1  0
 18 16  1  0
 19 16  1  0
 20 19  1  0
 21 19  1  0
 23 22  1  0
 23 19  1  0
 24 23  2  0
 25  1  1  0
 26 25  1  0
 27 25  1  0
 28 25  1  0
 29 28  1  0
 30 28  1  0
 31 28  1  0
 32 31  1  0
 33 31  1  0
 34 31  1  0
 35 34  1  0
 36 34  1  0
 37 34  1  0
 38 37  1  0
 39 37  1  0
 40 37  1  0
 41 40  1  0
 42 40  1  0
 43 40  1  0
M  CHG  1  22  -1
M  END
$$$$
=
     RDKit          3D

 53 55  0  0  0  0  0  0  0  0999 V2000
   22.6600   18.7660    4.7500 C   0  0  0  0  0  0  0  0  0  0  0  0
   22.2420   17.4880    5.4280 C   0  0  0  0  0  0  0  0  0  0  0  0
   22.7340   17.1660    6.5130 O   0  0  0  0  0  0  0  0  0  0  0  0
   21.2960   16.7050    4.8130 N   0  0  0  0  0  0  0  0  0  0  0  0
   20.8550   15.4340    5.4170 C   0  0  0  0  0  0  0  0  0  0  0  0
   19.5040   15.2150    4.7290 C   0  0  0  0  0  0  0  0  0  0  0  0
   19.9740   15.5930    3.2850 C   0  0  0  0  0  0  0  0  0  0  0  0
   20.6490   16.9360    3.4830 C   0  0  1  0  0  0  0  0  0  0  0  0
   18.5000   16.1050    5.5460 C   0  0  0  0  0  0  0  0  0  0  0  0
   17.0330   15.9660    5.1700 C   0  0  0  0  0  0  0  0  0  0  0  0
   16.9390   15.3520    3.8170 N   0  0  0  0  0  4  0  0  0  0  0  0
   17.5530   13.9610    3.7810 C   0  0  0  0  0  0  0  0  0  0  0  0
   18.8410   13.8510    4.6410 C   0  0  0  0  0  0  0  0  0  0  0  0
   19.5080   18.0150    3.3370 C   0  0  0  0  0  0  0  0  0  0  0  0
   19.2560   18.7020    4.3890 O   0  0  0  0  0  0  0  0  0  0  0  0
   18.9810   18.1070    2.2000 O   0  0  0  0  0  1  0  0  0  0  0  0
   15.5680   15.4700    3.2180 C   0  0  0  0  0  0  0  0  0  0  0  0
   14.5170   15.6710    4.3040 C   0  0  0  0  0  0  0  0  0  0  0  0
   14.0310   14.3250    4.8430 C   0  0  0  0  0  0  0  0  0  0  0  0
   12.8000   13.8520    4.1140 C   0  0  0  0  0  0  0  0  0  0  0  0
   12.8850   12.8050    3.1870 C   0  0  0  0  0  0  0  0  0  0  0  0
   11.7430   12.3520    2.5240 C   0  0  0  0  0  0  0  0  0  0  0  0
   10.5070   12.9410    2.7830 C   0  0  0  0  0  0  0  0  0  0  0  0
   10.4110   13.9820    3.7050 C   0  0  0  0  0  0  0  0  0  0  0  0
   11.5510   14.4350    4.3700 C   0  0  0  0  0  0  0  0  0  0  0  0
   22.9069   19.5210    5.5109 H   0  0  0  0  0  0  0  0  0  0  0  0
   23.5428   18.5761    4.1219 H   0  0  0  0  0  0  0  0  0  0  0  0
   21.8356   19.1345    4.1219 H   0  0  0  0  0  0  0  0  0  0  0  0
   21.5570   14.6178    5.1909 H   0  0  0  0  0  0  0  0  0  0  0  0
   20.7980   15.4578    6.5153 H   0  0  0  0  0  0  0  0  0  0  0  0
   20.6829   14.8488    2.8931 H   0  0  0  0  0  0  0  0  0  0  0  0
   19.1499   15.6267    2.5572 H   0  0  0  0  0  0  0  0  0  0  0  0
   21.4173   17.3074    2.7889 H   0  0  0  0  0  0  0  0  0  0  0  0
   18.6023   15.8400    6.6087 H   0  0  0  0  0  0  0  0  0  0  0  0
   18.7694   17.1464    5.3157 H   0  0  0  0  0  0  0  0  0  0  0  0
   16.5229   15.3240    5.9033 H   0  0  0  0  0  0  0  0  0  0  0  0
   16.5538   16.9561    5.1645 H   0  0  0  0  0  0  0  0  0  0  0  0
   17.5256   15.9082    3.1787 H   0  0  0  0  0  0  0  0  0  0  0  0
   16.8138   13.2403    4.1609 H   0  0  0  0  0  0  0  0  0  0  0  0
   17.8311   13.7479    2.7383 H   0  0  0  0  0  0  0  0  0  0  0  0
   18.5796   13.5036    5.6514 H   0  0  0  0  0  0  0  0  0  0  0  0
   19.5339   13.1338    4.1768 H   0  0  0  0  0  0  0  0  0  0  0  0
   15.5470   16.3300    2.5325 H   0  0  0  0  0  0  0  0  0  0  0  0
   15.3399   14.5410    2.6748 H   0  0  0  0  0  0  0  0  0  0  0  0
   14.9562   16.2524    5.1281 H   0  0  0  0  0  0  0  0  0  0  0  0
   13.6603   16.2084    3.8713 H   0  0  0  0  0  0  0  0  0  0  0  0
   14.8300   13.5796    4.7169 H   0  0  0  0  0  0  0  0  0  0  0  0
   13.7770   14.4495    5.9060 H   0  0  0  0  0  0  0  0  0  0  0  0
   13.8585   12.3365    2.9801 H   0  0  0  0  0  0  0  0  0  0  0  0
   11.8189   11.5300    1.7970 H   0  0  0  0  0  0  0  0  0  0  0  0
    9.6073   12.5846    2.2600 H   0  0  0  0  0  0  0  0  0  0  0  0
    9.4352   14.4471    3.9086 H   0  0  0  0  0  0  0  0  0  0  0  0
   11.4692   15.2543    5.0994 H   0  0  0  0  0  0  0  0  0  0  0  0
  2  1  1  0
  3  2  2  0
  4  2  1  0
  5  4  1  0
  6  5  1  0
  7  6  1  0
  8  7  1  0
  8  4  1  0
  9  6  1  0
 10  9  1  0
 11 10  1  0
 12 11  1  0
 13 12  1  0
 13  6  1  0
 14  8  1  0
 15 14  2  0
 16 14  1  0
 17 11  1  0
 18 17  1  0
 19 18  1  0
 20 19  1  0
 21 20  2  0
 22 21  1  0
 23 22  2  0
 24 23  1  0
 25 24  2  0
 25 20  1  0
  1 26  1  0
  1 27  1  0
  1 28  1  0
  5 29  1  0
  5 30  1  0
  7 31  1  0
  7 32  1  0
  8 33  1  6
  9 34  1  0
  9 35  1  0
 10 36  1  0
 10 37  1  0
 11 38  1  0
 12 39  1  0
 12 40  1  0
 13 41  1  0
 13 42  1  0
 17 43  1  0
 17 44  1  0
 18 45  1  0
 18 46  1  0
 19 47  1  0
 19 48  1  0
 21 49  1  0
 22 50  1  0
 23 51  1  0
 24 52  1  0
 25 53  1  0
M  CHG  2  11   1  16  -1
M  END
$$$$
=
     RDKit          3D

 72 75  0  0  0  0  0  0  0  0999 V2000
   21.9760   26.2410   15.8150 N   0  0  0  0  0  0  0  0  0  0  0  0
   23.0440   26.4680   14.9520 C   0  0  0  0  0  0  0  0  0  0  0  0
   23.1950   25.8900   13.8780 O   0  0  0  0  0  0  0  0  0  0  0  0
   20.9040   25.3410   15.3690 C   0  0  0  0  0  0  0  0  0  0  0  0
   21.2830   23.8610   15.4810 C   0  0  0  0  0  0  0  0  0  0  0  0
   20.1030   22.9760   15.0990 C   0  0  0  0  0  0  0  0  0  0  0  0
   19.5080   23.3400   13.8140 N   0  0  0  0  0  0  0  0  0  0  0  0
   19.2340   24.7580   13.5900 C   0  0  0  0  0  0  0  0  0  0  0  0
   20.4160   25.6490   13.9500 C   0  0  0  0  0  0  0  0  0  0  0  0
   18.8010   22.3530   13.1350 C   0  0  0  0  0  0  0  0  0  0  0  0
   18.7920   21.1710   13.4560 O   0  0  0  0  0  0  0  0  0  0  0  0
   18.1130   22.8540   12.0730 O   0  0  0  0  0  0  0  0  0  0  0  0
   18.5240   22.5720   10.7130 C   0  0  0  0  0  0  0  0  0  0  0  0
   17.7110   21.4210   10.1110 C   0  0  0  0  0  0  0  0  0  0  0  0
   20.0330   22.3180   10.6240 C   0  0  0  0  0  0  0  0  0  0  0  0
   18.1980   23.8570    9.9360 C   0  0  0  0  0  0  0  0  0  0  0  0
   21.7370   27.1540   16.9870 C   0  0  2  0  0  0  0  0  0  0  0  0
   22.2980   26.6210   18.3590 C   0  0  0  0  0  0  0  0  0  0  0  0
   23.3730   27.1460   18.7680 O   0  0  0  0  0  0  0  0  0  0  0  0
   21.6240   25.6820   18.8820 O   0  0  0  0  0  1  0  0  0  0  0  0
   19.9950   28.8080   16.1320 C   0  0  0  0  0  0  0  0  0  0  0  0
   20.2630   27.5940   17.0130 C   0  0  0  0  0  0  0  0  0  0  0  0
   23.9500   27.3530   15.4470 O   0  0  0  0  0  0  0  0  0  0  0  0
   25.2570   26.8200   15.7190 C   0  0  0  0  0  0  0  0  0  0  0  0
   26.3380   27.6100   14.9700 C   0  0  0  0  0  0  0  0  0  0  0  0
   26.9220   26.8360   13.7870 C   0  0  0  0  0  0  0  0  0  0  0  0
   26.2560   26.3200   12.6870 C   0  0  0  0  0  0  0  0  0  0  0  0
   27.0050   25.6450   11.7210 C   0  0  0  0  0  0  0  0  0  0  0  0
   28.3950   25.5000   11.8620 C   0  0  0  0  0  0  0  0  0  0  0  0
   29.0620   26.0270   12.9730 C   0  0  0  0  0  0  0  0  0  0  0  0
   28.3190   26.6930   13.9340 C   0  0  0  0  0  0  0  0  0  0  0  0
   28.7270   27.3210   15.1730 C   0  0  0  0  0  0  0  0  0  0  0  0
   27.5880   27.8610   15.8070 C   0  0  0  0  0  0  0  0  0  0  0  0
   27.6860   28.5430   17.0110 C   0  0  0  0  0  0  0  0  0  0  0  0
   28.9470   28.6650   17.5960 C   0  0  0  0  0  0  0  0  0  0  0  0
   30.0830   28.1200   16.9750 C   0  0  0  0  0  0  0  0  0  0  0  0
   29.9770   27.4440   15.7540 C   0  0  0  0  0  0  0  0  0  0  0  0
   20.0725   25.5335   16.0629 H   0  0  0  0  0  0  0  0  0  0  0  0
   22.1258   23.6514   14.8059 H   0  0  0  0  0  0  0  0  0  0  0  0
   21.5668   23.6449   16.5216 H   0  0  0  0  0  0  0  0  0  0  0  0
   20.4506   21.9339   15.0417 H   0  0  0  0  0  0  0  0  0  0  0  0
   19.3291   23.1091   15.8693 H   0  0  0  0  0  0  0  0  0  0  0  0
   18.9924   24.9062   12.5271 H   0  0  0  0  0  0  0  0  0  0  0  0
   18.3939   25.0411   14.2413 H   0  0  0  0  0  0  0  0  0  0  0  0
   21.2351   25.4697   13.2381 H   0  0  0  0  0  0  0  0  0  0  0  0
   20.0975   26.7008   13.9026 H   0  0  0  0  0  0  0  0  0  0  0  0
   17.2814   20.8128   10.9207 H   0  0  0  0  0  0  0  0  0  0  0  0
   16.9004   21.8301    9.4901 H   0  0  0  0  0  0  0  0  0  0  0  0
   18.3676   20.7938    9.4901 H   0  0  0  0  0  0  0  0  0  0  0  0
   20.4533   22.2472   11.6381 H   0  0  0  0  0  0  0  0  0  0  0  0
   20.2152   21.3766   10.0850 H   0  0  0  0  0  0  0  0  0  0  0  0
   20.5134   23.1479   10.0850 H   0  0  0  0  0  0  0  0  0  0  0  0
   17.9913   24.6719   10.6453 H   0  0  0  0  0  0  0  0  0  0  0  0
   19.0553   24.1303    9.3032 H   0  0  0  0  0  0  0  0  0  0  0  0
   17.3141   23.6886    9.3032 H   0  0  0  0  0  0  0  0  0  0  0  0
   22.3450   28.0584   16.8374 H   0  0  0  0  0  0  0  0  0  0  0  0
   19.8012   29.6857   16.7662 H   0  0  0  0  0  0  0  0  0  0  0  0
   20.8722   29.0010   15.4969 H   0  0  0  0  0  0  0  0  0  0  0  0
   19.1181   28.6138   15.4969 H   0  0  0  0  0  0  0  0  0  0  0  0
   19.6404   26.7588   16.6598 H   0  0  0  0  0  0  0  0  0  0  0  0
   20.0188   27.8748   18.0481 H   0  0  0  0  0  0  0  0  0  0  0  0
   25.4520   26.8789   16.8000 H   0  0  0  0  0  0  0  0  0  0  0  0
   25.2874   25.7743   15.3791 H   0  0  0  0  0  0  0  0  0  0  0  0
   25.8046   28.5295   14.6870 H   0  0  0  0  0  0  0  0  0  0  0  0
   25.1679   26.4387   12.5778 H   0  0  0  0  0  0  0  0  0  0  0  0
   26.5008   25.2220   10.8396 H   0  0  0  0  0  0  0  0  0  0  0  0
   28.9663   24.9652   11.0890 H   0  0  0  0  0  0  0  0  0  0  0  0
   30.1510   25.9152   13.0810 H   0  0  0  0  0  0  0  0  0  0  0  0
   26.7954   28.9751   17.4907 H   0  0  0  0  0  0  0  0  0  0  0  0
   29.0527   29.1941   18.5546 H   0  0  0  0  0  0  0  0  0  0  0  0
   31.0676   28.2257   17.4540 H   0  0  0  0  0  0  0  0  0  0  0  0
   30.8675   27.0199   15.2670 H   0  0  0  0  0  0  0  0  0  0  0  0
  2  1  1  0
  3  2  2  0
  4  1  1  0
  5  4  1  0
  6  5  1  0
  7  6  1  0
  8  7  1  0
  9  8  1  0
  9  4  1  0
 10  7  1  0
 11 10  2  0
 12 10  1  0
 13 12  1  0
 14 13  1  0
 15 13  1  0
 16 13  1  0
 17  1  1  0
 18 17  1  0
 19 18  2  0
 20 18  1  0
 22 17  1  0
 22 21  1  0
 23  2  1  0
 24 23  1  0
 25 24  1  0
 26 25  1  0
 27 26  2  0
 28 27  1  0
 29 28  2  0
 30 29  1  0
 31 26  1  0
 31 30  2  0
 32 31  1  0
 33 25  1  0
 33 32  2  0
 34 33  1  0
 35 34  2  0
 36 35  1  0
 37 32  1  0
 37 36  2  0
  4 38  1  0
  5 39  1  0
  5 40  1  0
  6 41  1  0
  6 42  1  0
  8 43  1  0
  8 44  1  0
  9 45  1  0
  9 46  1  0
 14 47  1  0
 14 48  1  0
 14 49  1  0
 15 50  1  0
 15 51  1  0
 15 52  1  0
 16 53  1  0
 16 54  1  0
 16 55  1  0
 17 56  1  6
 21 57  1  0
 21 58  1  0
 21 59  1  0
 22 60  1  0
 22 61  1  0
 24 62  1  0
 24 63  1  0
 25 64  1  0
 27 65  1  0
 28 66  1  0
 29 67  1  0
 30 68  1  0
 34 69  1  0
 35 70  1  0
 36 71  1  0
 37 72  1  0
M  CHG  1  20  -1
M  END
$$$$
=
     RDKit          3D

 35 38  0  0  0  0  0  0  0  0999 V2000
   24.6490   26.3480   13.8300 C   0  0  0  0  0  0  0  0  0  0  0  0
   25.9970   26.4320   14.1190 C   0  0  0  0  0  0  0  0  0  0  0  0
   26.7960   27.1170   15.1300 C   0  0  0  0  0  0  0  0  0  0  0  0
   26.2580   27.8660   16.1780 C   0  0  0  0  0  0  0  0  0  0  0  0
   27.0960   28.4880   17.1120 C   0  0  0  0  0  0  0  0  0  0  0  0
   28.4810   28.3760   17.0110 C   0  0  0  0  0  0  0  0  0  0  0  0
   29.0430   27.6280   15.9780 C   0  0  0  0  0  0  0  0  0  0  0  0
   28.2140   26.9930   15.0410 C   0  0  0  0  0  0  0  0  0  0  0  0
   28.8840   26.1760   13.9570 C   0  0  0  0  0  0  0  0  0  0  0  0
   30.1060   26.0970   13.8670 O   0  0  0  0  0  0  0  0  0  0  0  0
   28.0290   25.4720   12.9730 C   0  0  0  0  0  0  0  0  0  0  0  0
   26.6600   25.6690   13.1340 C   0  0  0  0  0  0  0  0  0  0  0  0
   25.7430   25.1020   12.2680 C   0  0  0  0  0  0  0  0  0  0  0  0
   24.5040   25.5320   12.7110 N   0  0  0  0  0  0  0  0  0  0  0  0
   23.2510   25.1980   12.0680 C   0  0  0  0  0  0  0  0  0  0  0  0
   26.1760   24.2880   11.2070 C   0  0  0  0  0  0  0  0  0  0  0  0
   27.5630   24.0870   11.0580 C   0  0  0  0  0  0  0  0  0  0  0  0
   28.4880   24.6740   11.9270 C   0  0  0  0  0  0  0  0  0  0  0  0
   23.2500   27.0990   14.5530 S   0  0  0  0  0  0  0  0  0  0  0  0
   22.8970   25.9740   15.9430 C   0  0  0  0  0  0  0  0  0  0  0  0
   23.7120   26.2560   18.1440 O   0  0  0  0  0  1  0  0  0  0  0  0
   23.0010   26.7840   17.2390 C   0  0  0  0  0  0  0  0  0  0  0  0
   22.3160   27.8480   17.2870 O   0  0  0  0  0  0  0  0  0  0  0  0
   25.1667   27.9685   16.2710 H   0  0  0  0  0  0  0  0  0  0  0  0
   26.6559   29.0713   17.9342 H   0  0  0  0  0  0  0  0  0  0  0  0
   29.1295   28.8768   17.7449 H   0  0  0  0  0  0  0  0  0  0  0  0
   30.1361   27.5355   15.8974 H   0  0  0  0  0  0  0  0  0  0  0  0
   22.4884   24.9947   12.8343 H   0  0  0  0  0  0  0  0  0  0  0  0
   22.9248   26.0406   11.4405 H   0  0  0  0  0  0  0  0  0  0  0  0
   23.3875   24.3049   11.4405 H   0  0  0  0  0  0  0  0  0  0  0  0
   25.4567   23.8236   10.5164 H   0  0  0  0  0  0  0  0  0  0  0  0
   27.9273   23.4520   10.2370 H   0  0  0  0  0  0  0  0  0  0  0  0
   29.5662   24.5076   11.7864 H   0  0  0  0  0  0  0  0  0  0  0  0
   21.8831   25.5598   15.8410 H   0  0  0  0  0  0  0  0  0  0  0  0
   23.6133   25.1392   15.9531 H   0  0  0  0  0  0  0  0  0  0  0  0
  2  1  2  0
  3  2  1  0
  4  3  2  0
  5  4  1  0
  6  5  2  0
  7  6  1  0
  8  3  1  0
  8  7  2  0
  9  8  1  0
 10  9  2  0
 11  9  1  0
 12  2  1  0
 12 11  2  0
 13 12  1  0
 14 13  1  0
 14  1  1  0
 15 14  1  0
 16 13  2  0
 17 16  1  0
 18 17  2  0
 18 11  1  0
 19  1  1  0
 20 19  1  0
 22 20  1  0
 22 21  1  0
 23 22  2  0
  4 24  1  0
  5 25  1  0
  6 26  1  0
  7 27  1  0
 15 28  1  0
 15 29  1  0
 15 30  1  0
 16 31  1  0
 17 32  1  0
 18 33  1  0
 20 34  1  0
 20 35  1  0
M  CHG  1  21  -1
M  END
$$$$
=
     RDKit          3D

 21 22  0  0  0  0  0  0  0  0999 V2000
   20.6020   16.3430    5.1460 C   0  0  0  0  0  0  0  0  0  0  0  0
   20.7720   17.4050    4.3000 N   0  0  0  0  0  0  0  0  0  0  0  0
   19.9730   17.4920    3.2220 C   0  0  0  0  0  0  0  0  0  0  0  0
   18.9860   16.5740    2.9080 C   0  0  0  0  0  0  0  0  0  0  0  0
   18.7990   15.4850    3.7600 C   0  0  0  0  0  0  0  0  0  0  0  0
   19.6200   15.3750    4.8880 C   0  0  0  0  0  0  0  0  0  0  0  0
   17.7950   14.5050    3.4890 N   0  0  0  0  0  0  0  0  0  0  0  0
   16.4220   14.7020    3.5010 C   0  0  0  0  0  0  0  0  0  0  0  0
   15.7840   13.5210    3.1880 C   0  0  0  0  0  0  0  0  0  0  0  0
   16.7830   12.5540    2.9740 C   0  0  0  0  0  0  0  0  0  0  0  0
   17.9990   13.1750    3.1630 C   0  0  0  0  0  0  0  0  0  0  0  0
   21.0880   15.3380    7.2820 O   0  0  0  0  0  1  0  0  0  0  0  0
   21.4860   16.1790    6.4050 C   0  0  0  0  0  0  0  0  0  0  0  0
   22.5450   16.8800    6.4990 O   0  0  0  0  0  0  0  0  0  0  0  0
   20.1129   18.3483    2.5459 H   0  0  0  0  0  0  0  0  0  0  0  0
   18.3645   16.6998    2.0092 H   0  0  0  0  0  0  0  0  0  0  0  0
   19.4947   14.5255    5.5755 H   0  0  0  0  0  0  0  0  0  0  0  0
   15.9196   15.6544    3.7258 H   0  0  0  0  0  0  0  0  0  0  0  0
   14.6975   13.3641    3.1186 H   0  0  0  0  0  0  0  0  0  0  0  0
   16.6235   11.4992    2.7059 H   0  0  0  0  0  0  0  0  0  0  0  0
   18.9810   12.6884    3.0692 H   0  0  0  0  0  0  0  0  0  0  0  0
  2  1  2  0
  3  2  1  0
  4  3  2  0
  5  4  1  0
  6  5  2  0
  6  1  1  0
  7  5  1  0
  8  7  1  0
  9  8  2  0
 10  9  1  0
 11 10  2  0
 11  7  1  0
 13  1  1  0
 13 12  1  0
 14 13  2  0
  3 15  1  0
  4 16  1  0
  6 17  1  0
  8 18  1  0
  9 19  1  0
 10 20  1  0
 11 21  1  0
M  CHG  1  12  -1
M  END
$$$$
=
     RDKit          3D

 35 36  0  0  0  0  0  0  0  0999 V2000
   11.2770   14.0020    4.7720 C   0  0  1  0  0  0  0  0  0  0  0  0
   15.3940   13.6500    3.3890 C   0  0  0  0  0  0  0  0  0  0  0  0
   14.4480   12.6750    3.0840 C   0  0  0  0  0  0  0  0  0  0  0  0
   13.1260   12.8150    3.5240 C   0  0  0  0  0  0  0  0  0  0  0  0
   12.7200   13.9310    4.2770 C   0  0  0  0  0  0  0  0  0  0  0  0
   13.6840   14.9020    4.5790 C   0  0  0  0  0  0  0  0  0  0  0  0
   15.0040   14.7600    4.1390 C   0  0  0  0  0  0  0  0  0  0  0  0
   17.5710   14.5280    3.7170 C   0  0  0  0  0  0  0  0  0  0  0  0
   16.7140   13.6310    3.0250 O   0  0  0  0  0  0  0  0  0  0  0  0
   10.4750   13.1230    3.9070 N   0  0  0  0  0  0  0  0  0  0  0  0
    9.4940   13.5800    3.0520 C   0  0  0  0  0  0  0  0  0  0  0  0
    9.1330   14.7540    3.0290 O   0  0  0  0  0  0  0  0  0  0  0  0
    8.9400   12.5490    2.1750 C   0  0  0  0  0  0  0  0  0  0  0  0
    9.5780   11.6830    1.3000 C   0  0  0  0  0  0  0  0  0  0  0  0
    8.6700   10.8200    0.6180 C   0  0  0  0  0  0  0  0  0  0  0  0
    7.3670   11.0450    0.9950 C   0  0  0  0  0  0  0  0  0  0  0  0
    7.2420   12.2810    2.1670 S   0  0  0  0  0  0  0  0  0  0  0  0
   11.0300   13.5640    6.2120 C   0  0  0  0  0  0  0  0  0  0  0  0
    9.5640   13.6860    6.5920 C   0  0  0  0  0  0  0  0  0  0  0  0
    9.0570   12.6830    7.1610 O   0  0  0  0  0  0  0  0  0  0  0  0
    9.0480   14.8090    6.3220 O   0  0  0  0  0  1  0  0  0  0  0  0
   11.0050   15.0672    4.7354 H   0  0  0  0  0  0  0  0  0  0  0  0
   14.7399   11.7924    2.4959 H   0  0  0  0  0  0  0  0  0  0  0  0
   12.3901   12.0361    3.2755 H   0  0  0  0  0  0  0  0  0  0  0  0
   13.3994   15.7859    5.1687 H   0  0  0  0  0  0  0  0  0  0  0  0
   15.7449   15.5341    4.3877 H   0  0  0  0  0  0  0  0  0  0  0  0
   17.4432   14.3942    4.8013 H   0  0  0  0  0  0  0  0  0  0  0  0
   18.6161   14.3217    3.4428 H   0  0  0  0  0  0  0  0  0  0  0  0
   17.3173   15.5626    3.4428 H   0  0  0  0  0  0  0  0  0  0  0  0
   10.6562   12.1097    3.9418 H   0  0  0  0  0  0  0  0  0  0  0  0
   10.6673   11.6636    1.1481 H   0  0  0  0  0  0  0  0  0  0  0  0
    8.9756   10.0648   -0.1211 H   0  0  0  0  0  0  0  0  0  0  0  0
    6.5060   10.4936    0.5893 H   0  0  0  0  0  0  0  0  0  0  0  0
   11.3414   12.5150    6.3241 H   0  0  0  0  0  0  0  0  0  0  0  0
   11.6123   14.2206    6.8752 H   0  0  0  0  0  0  0  0  0  0  0  0
  3  2  2  0
  4  3  1  0
  5  4  2  0
  5  1  1  0
  6  5  1  0
  7  6  2  0
  7  2  1  0
  9  2  1  0
  9  8  1  0
 10  1  1  0
 11 10  1  0
 12 11  2  0
 13 11  1  0
 14 13  2  0
 15 14  1  0
 16 15  2  0
 17 16  1  0
 17 13  1  0
 18  1  1  0
 19 18  1  0
 20 19  2  0
 21 19  1  0
  1 22  1  1
  3 23  1  0
  4 24  1  0
  6 25  1  0
  7 26  1  0
  8 27  1  0
  8 28  1  0
  8 29  1  0
 10 30  1  0
 14 31  1  0
 15 32  1  0
 16 33  1  0
 18 34  1  0
 18 35  1  0
M  CHG  1  21  -1
M  END
$$$$
=
     RDKit          3D

 26 26  0  0  0  0  0  0  0  0999 V2000
   15.5890   14.4320    3.6580 C   0  0  0  0  0  0  0  0  0  0  0  0
   15.7450   13.2860    2.8650 C   0  0  0  0  0  0  0  0  0  0  0  0
   14.6970   12.3820    2.7030 C   0  0  0  0  0  0  0  0  0  0  0  0
   13.4750   12.6230    3.3260 C   0  0  0  0  0  0  0  0  0  0  0  0
   13.2830   13.7680    4.1170 C   0  0  0  0  0  0  0  0  0  0  0  0
   14.3600   14.6650    4.2800 C   0  0  0  0  0  0  0  0  0  0  0  0
   17.2370   15.8890    4.8720 C   0  0  0  0  0  0  0  0  0  0  0  0
   16.9240   15.6740    6.0340 O   0  0  0  0  0  0  0  0  0  0  0  0
   16.7010   15.2980    3.7390 N   0  0  0  0  0  0  0  0  0  0  0  0
   18.3260   16.8700    4.5140 C   0  0  0  0  0  0  0  0  0  0  0  0
   19.5450   17.4720    2.3030 C   0  0  0  0  0  0  0  0  0  0  0  0
   19.2300   16.4640    3.3780 C   0  0  0  0  0  0  0  0  0  0  0  0
   19.6350   15.3000    3.2880 O   0  0  0  0  0  0  0  0  0  0  0  0
   11.9360   14.0300    4.7640 C   0  0  0  0  0  0  0  0  0  0  0  0
   11.6950   13.4230    5.8570 O   0  0  0  0  0  0  0  0  0  0  0  0
   11.1440   14.8260    4.1690 O   0  0  0  0  0  1  0  0  0  0  0  0
   16.7065   13.0984    2.3647 H   0  0  0  0  0  0  0  0  0  0  0  0
   14.8343   11.4819    2.0857 H   0  0  0  0  0  0  0  0  0  0  0  0
   12.6495   11.9076    3.1971 H   0  0  0  0  0  0  0  0  0  0  0  0
   14.2300   15.5604    4.9057 H   0  0  0  0  0  0  0  0  0  0  0  0
   17.1704   15.5169    2.8487 H   0  0  0  0  0  0  0  0  0  0  0  0
   17.8461   17.8210    4.2396 H   0  0  0  0  0  0  0  0  0  0  0  0
   18.9730   16.9337    5.4013 H   0  0  0  0  0  0  0  0  0  0  0  0
   19.8423   18.4234    2.7682 H   0  0  0  0  0  0  0  0  0  0  0  0
   20.3686   17.0963    1.6780 H   0  0  0  0  0  0  0  0  0  0  0  0
   18.6540   17.6321    1.6780 H   0  0  0  0  0  0  0  0  0  0  0  0
  2  1  2  0
  3  2  1  0
  4  3  2  0
  5  4  1  0
  6  5  2  0
  6  1  1  0
  8  7  2  0
  9  1  1  0
  9  7  1  0
 10  7  1  0
 12 11  1  0
 12 10  1  0
 13 12  2  0
 14  5  1  0
 15 14  2  0
 16 14  1  0
  2 17  1  0
  3 18  1  0
  4 19  1  0
  6 20  1  0
  9 21  1  0
 10 22  1  0
 10 23  1  0
 11 24  1  0
 11 25  1  0
 11 26  1  0
M  CHG  1  16  -1
M  END
$$$$
=
     RDKit          3D

 18 17  0  0  0  0  0  0  0  0999 V2000
   20.5700   18.2870    5.3920 C   0  0  0  0  0  0  0  0  0  0  0  0
   21.9520   17.6770    5.1780 C   0  0  0  0  0  0  0  0  0  0  0  0
   20.9250   15.2200    7.1350 N   0  0  0  0  0  2  0  0  0  0  0  0
   21.6120   16.0560    6.7760 N   0  0  0  0  0  4  0  0  0  0  0  0
   22.3740   16.9600    6.3900 N   0  0  0  0  0  0  0  0  0  0  0  0
   19.6390   17.9550    4.2260 C   0  0  0  0  0  0  0  0  0  0  0  0
   18.5910   16.9200    4.6210 C   0  0  0  0  0  0  0  0  0  0  0  0
   18.7120   15.5750    3.8970 C   0  0  0  0  0  0  0  0  0  0  0  0
   19.8810   15.1480    3.6920 O   0  0  0  0  0  0  0  0  0  0  0  0
   17.6020   15.0520    3.5920 O   0  0  0  0  0  1  0  0  0  0  0  0
   20.1397   17.8860    6.3215 H   0  0  0  0  0  0  0  0  0  0  0  0
   20.6752   19.3800    5.4566 H   0  0  0  0  0  0  0  0  0  0  0  0
   21.9138   16.9741    4.3327 H   0  0  0  0  0  0  0  0  0  0  0  0
   22.6730   18.4790    4.9614 H   0  0  0  0  0  0  0  0  0  0  0  0
   19.1287   18.8746    3.9038 H   0  0  0  0  0  0  0  0  0  0  0  0
   20.2459   17.5357    3.4100 H   0  0  0  0  0  0  0  0  0  0  0  0
   18.6817   16.7363    5.7018 H   0  0  0  0  0  0  0  0  0  0  0  0
   17.6163   17.3405    4.3327 H   0  0  0  0  0  0  0  0  0  0  0  0
  2  1  1  0
  4  3  2  0
  5  4  2  0
  5  2  1  0
  6  1  1  0
  7  6  1  0
  8  7  1  0
  9  8  2  0
 10  8  1  0
  1 11  1  0
  1 12  1  0
  2 13  1  0
  2 14  1  0
  6 15  1  0
  6 16  1  0
  7 17  1  0
  7 18  1  0
M  CHG  3   3  -1   4   1  10  -1
M  END
$$$$
=
     RDKit          3D

 37 37  0  0  0  0  0  0  0  0999 V2000
   26.0810   26.2370   13.5720 C   0  0  2  0  0  0  0  0  0  0  0  0
   26.4480   25.3370   12.5130 N   0  0  0  0  0  0  0  0  0  0  0  0
   25.6500   25.1480   11.3260 C   0  0  0  0  0  0  0  0  0  0  0  0
   27.7890   24.9890   12.5750 C   0  0  0  0  0  0  0  0  0  0  0  0
   28.4300   24.4390   11.6960 O   0  0  0  0  0  0  0  0  0  0  0  0
   28.3410   25.5570   13.8240 C   0  0  0  0  0  0  0  0  0  0  0  0
   27.3480   26.2930   14.3440 C   0  0  0  0  0  0  0  0  0  0  0  0
   23.5740   27.0190   14.3840 C   0  0  0  0  0  0  0  0  0  0  0  0
   24.6910   25.6120   14.5410 S   0  0  0  0  0  0  0  0  0  0  0  0
   27.5270   27.2240   15.4740 C   0  0  0  0  0  0  0  0  0  0  0  0
   27.1410   26.9010   16.5980 O   0  0  0  0  0  0  0  0  0  0  0  0
   28.0790   28.6410   15.2040 C   0  0  0  0  0  0  0  0  0  0  0  0
   28.2200   28.9910   13.7160 C   0  0  0  0  0  0  0  0  0  0  0  0
   29.4680   28.7430   15.8560 C   0  0  0  0  0  0  0  0  0  0  0  0
   27.1290   29.6470   15.8720 C   0  0  0  0  0  0  0  0  0  0  0  0
   29.7630   25.3940   14.2190 C   0  0  0  0  0  0  0  0  0  0  0  0
   30.0140   24.2280   15.1740 C   0  0  0  0  0  0  0  0  0  0  0  0
   30.7970   23.3220   14.7770 O   0  0  0  0  0  0  0  0  0  0  0  0
   29.3490   24.2950   16.2510 O   0  0  0  0  0  1  0  0  0  0  0  0
   25.7239   27.2214   13.2352 H   0  0  0  0  0  0  0  0  0  0  0  0
   24.6169   24.9033   11.6138 H   0  0  0  0  0  0  0  0  0  0  0  0
   25.6553   26.0723   10.7296 H   0  0  0  0  0  0  0  0  0  0  0  0
   26.0693   24.3243   10.7296 H   0  0  0  0  0  0  0  0  0  0  0  0
   23.2907   27.3758   15.3852 H   0  0  0  0  0  0  0  0  0  0  0  0
   24.0784   27.8282   13.8355 H   0  0  0  0  0  0  0  0  0  0  0  0
   22.6715   26.7113   13.8355 H   0  0  0  0  0  0  0  0  0  0  0  0
   28.6293   30.0070   13.6155 H   0  0  0  0  0  0  0  0  0  0  0  0
   28.8989   28.2728   13.2331 H   0  0  0  0  0  0  0  0  0  0  0  0
   27.2328   28.9440   13.2331 H   0  0  0  0  0  0  0  0  0  0  0  0
   29.3607   28.7351   16.9507 H   0  0  0  0  0  0  0  0  0  0  0  0
   30.0842   27.8877   15.5418 H   0  0  0  0  0  0  0  0  0  0  0  0
   29.9527   29.6792   15.5418 H   0  0  0  0  0  0  0  0  0  0  0  0
   27.2119   29.5593   16.9654 H   0  0  0  0  0  0  0  0  0  0  0  0
   27.4005   30.6676   15.5644 H   0  0  0  0  0  0  0  0  0  0  0  0
   26.0945   29.4343   15.5644 H   0  0  0  0  0  0  0  0  0  0  0  0
   30.3580   25.2294   13.3086 H   0  0  0  0  0  0  0  0  0  0  0  0
   30.0513   26.3108   14.7541 H   0  0  0  0  0  0  0  0  0  0  0  0
  2  1  1  0
  3  2  1  0
  4  2  1  0
  5  4  2  0
  6  4  1  0
  7  1  1  0
  7  6  2  0
  9  8  1  0
  9  1  1  0
 10  7  1  0
 11 10  2  0
 12 10  1  0
 13 12  1  0
 14 12  1  0
 15 12  1  0
 16  6  1  0
 17 16  1  0
 18 17  2  0
 19 17  1  0
  1 20  1  6
  3 21  1  0
  3 22  1  0
  3 23  1  0
  8 24  1  0
  8 25  1  0
  8 26  1  0
 13 27  1  0
 13 28  1  0
 13 29  1  0
 14 30  1  0
 14 31  1  0
 14 32  1  0
 15 33  1  0
 15 34  1  0
 15 35  1  0
 16 36  1  0
 16 37  1  0
M  CHG  1  19  -1
M  END
$$$$
=
     RDKit          3D

 27 28  0  0  0  0  0  0  0  0999 V2000
   19.2970   16.9300    4.6870 C   0  0  0  0  0  0  0  0  0  0  0  0
   18.0010   16.7570    4.2860 O   0  0  0  0  0  0  0  0  0  0  0  0
   17.7060   15.4660    4.6220 C   0  0  0  0  0  0  0  0  0  0  0  0
   18.6880   14.8160    5.2070 N   0  0  0  0  0  0  0  0  0  0  0  0
   19.7160   15.7570    5.2840 C   0  0  0  0  0  0  0  0  0  0  0  0
   16.3660   14.9890    4.2890 C   0  0  0  0  0  0  0  0  0  0  0  0
   15.2080   15.6150    4.7800 C   0  0  0  0  0  0  0  0  0  0  0  0
   13.9400   15.1350    4.4420 C   0  0  0  0  0  0  0  0  0  0  0  0
   13.8250   14.0260    3.6110 C   0  0  0  0  0  0  0  0  0  0  0  0
   14.9530   13.3890    3.1120 C   0  0  0  0  0  0  0  0  0  0  0  0
   16.2210   13.8690    3.4510 C   0  0  0  0  0  0  0  0  0  0  0  0
   12.6080   13.5670    3.2880 F   0  0  0  0  0  0  0  0  0  0  0  0
   21.1230   15.5140    5.9790 C   0  0  0  0  0  0  0  0  0  0  0  0
   22.1230   15.3210    5.2190 O   0  0  0  0  0  0  0  0  0  0  0  0
   21.1460   15.5210    7.2490 O   0  0  0  0  0  1  0  0  0  0  0  0
   19.7610   18.1450    4.4120 O   0  0  0  0  0  0  0  0  0  0  0  0
   22.0710   18.7520    4.3140 C   0  0  0  0  0  0  0  0  0  0  0  0
   20.8930   18.1840    3.5470 C   0  0  0  0  0  0  0  0  0  0  0  0
   15.3005   16.4921    5.4373 H   0  0  0  0  0  0  0  0  0  0  0  0
   13.0385   15.6312    4.8308 H   0  0  0  0  0  0  0  0  0  0  0  0
   14.8496   12.5130    2.4547 H   0  0  0  0  0  0  0  0  0  0  0  0
   17.1161   13.3648    3.0577 H   0  0  0  0  0  0  0  0  0  0  0  0
   21.8833   18.6615    5.3941 H   0  0  0  0  0  0  0  0  0  0  0  0
   22.9823   18.1943    4.0522 H   0  0  0  0  0  0  0  0  0  0  0  0
   22.2021   19.8123    4.0522 H   0  0  0  0  0  0  0  0  0  0  0  0
   21.1311   17.1667    3.2028 H   0  0  0  0  0  0  0  0  0  0  0  0
   20.6753   18.8151    2.6728 H   0  0  0  0  0  0  0  0  0  0  0  0
  2  1  1  0
  3  2  1  0
  4  3  2  0
  5  4  1  0
  5  1  2  0
  6  3  1  0
  7  6  2  0
  8  7  1  0
  9  8  2  0
 10  9  1  0
 11 10  2  0
 11  6  1  0
 12  9  1  0
 13  5  1  0
 14 13  2  0
 15 13  1  0
 16  1  1  0
 18 16  1  0
 18 17  1  0
  7 19  1  0
  8 20  1  0
 10 21  1  0
 11 22  1  0
 17 23  1  0
 17 24  1  0
 17 25  1  0
 18 26  1  0
 18 27  1  0
M  CHG  1  15  -1
M  END
$$$$
=
     RDKit          3D

 39 39  0  0  0  0  0  0  0  0999 V2000
   17.9870   15.2040    3.9680 C   0  0  0  0  0  0  0  0  0  0  0  0
   18.8510   14.6610    3.2750 O   0  0  0  0  0  0  0  0  0  0  0  0
   13.8790   13.7960    3.9110 C   0  0  0  0  0  0  0  0  0  0  0  0
   14.2870   14.8820    4.7010 C   0  0  0  0  0  0  0  0  0  0  0  0
   15.6160   15.3270    4.7090 C   0  0  0  0  0  0  0  0  0  0  0  0
   16.5830   14.6900    3.9250 C   0  0  0  0  0  0  0  0  0  0  0  0
   16.1940   13.6110    3.1330 C   0  0  0  0  0  0  0  0  0  0  0  0
   14.8590   13.1810    3.1210 C   0  0  0  0  0  0  0  0  0  0  0  0
   12.1450   12.6530    2.7280 C   0  0  0  0  0  0  0  0  0  0  0  0
   12.5270   13.3950    3.9310 N   0  0  0  0  0  0  0  0  0  0  0  0
   11.5520   14.4040    4.3510 C   0  0  0  0  0  0  0  0  0  0  0  0
   18.3360   16.3940    4.8410 C   0  0  0  0  0  0  0  0  0  0  0  0
   19.0530   17.4840    4.0540 C   0  0  0  0  0  0  0  0  0  0  0  0
   19.8330   18.4200    4.9850 C   0  0  0  0  0  0  0  0  0  0  0  0
   21.3470   18.3790    4.7370 C   0  0  0  0  0  0  0  0  0  0  0  0
   22.1230   17.6840    5.8550 C   0  0  0  0  0  0  0  0  0  0  0  0
   21.7670   16.2090    6.0000 C   0  0  0  0  0  0  0  0  0  0  0  0
   21.3990   15.8560    7.1570 O   0  0  0  0  0  0  0  0  0  0  0  0
   21.8680   15.5200    4.9480 O   0  0  0  0  0  1  0  0  0  0  0  0
   13.5453   15.3967    5.3295 H   0  0  0  0  0  0  0  0  0  0  0  0
   15.9007   16.1841    5.3370 H   0  0  0  0  0  0  0  0  0  0  0  0
   16.9399   13.0926    2.5125 H   0  0  0  0  0  0  0  0  0  0  0  0
   14.5738   12.3383    2.4740 H   0  0  0  0  0  0  0  0  0  0  0  0
   11.6593   11.7096    3.0179 H   0  0  0  0  0  0  0  0  0  0  0  0
   11.4458   13.2571    2.1312 H   0  0  0  0  0  0  0  0  0  0  0  0
   13.0429   12.4349    2.1312 H   0  0  0  0  0  0  0  0  0  0  0  0
   11.5146   14.4427    5.4497 H   0  0  0  0  0  0  0  0  0  0  0  0
   11.8505   15.3876    3.9594 H   0  0  0  0  0  0  0  0  0  0  0  0
   10.5587   14.1394    3.9594 H   0  0  0  0  0  0  0  0  0  0  0  0
   17.4090   16.8104    5.2620 H   0  0  0  0  0  0  0  0  0  0  0  0
   19.0116   16.0471    5.6367 H   0  0  0  0  0  0  0  0  0  0  0  0
   19.7540   17.0145    3.3482 H   0  0  0  0  0  0  0  0  0  0  0  0
   18.2992   18.0776    3.5160 H   0  0  0  0  0  0  0  0  0  0  0  0
   19.4786   19.4491    4.8262 H   0  0  0  0  0  0  0  0  0  0  0  0
   19.6571   18.0826    6.0171 H   0  0  0  0  0  0  0  0  0  0  0  0
   21.5324   17.8403    3.7960 H   0  0  0  0  0  0  0  0  0  0  0  0
   21.6989   19.4203    4.6942 H   0  0  0  0  0  0  0  0  0  0  0  0
   23.1983   17.7653    5.6381 H   0  0  0  0  0  0  0  0  0  0  0  0
   21.8555   18.1811    6.7991 H   0  0  0  0  0  0  0  0  0  0  0  0
  2  1  2  0
  4  3  2  0
  5  4  1  0
  6  5  2  0
  6  1  1  0
  7  6  1  0
  8  7  2  0
  8  3  1  0
 10  9  1  0
 10  3  1  0
 11 10  1  0
 12  1  1  0
 13 12  1  0
 14 13  1  0
 15 14  1  0
 16 15  1  0
 17 16  1  0
 18 17  2  0
 19 17  1  0
  4 20  1  0
  5 21  1  0
  7 22  1  0
  8 23  1  0
  9 24  1  0
  9 25  1  0
  9 26  1  0
 11 27  1  0
 11 28  1  0
 11 29  1  0
 12 30  1  0
 12 31  1  0
 13 32  1  0
 13 33  1  0
 14 34  1  0
 14 35  1  0
 15 36  1  0
 15 37  1  0
 16 38  1  0
 16 39  1  0
M  CHG  1  19  -1
M  END
$$$$
=
     RDKit          3D

 22 23  0  0  0  0  0  0  0  0999 V2000
   14.1080   13.7200    3.8410 C   0  0  0  0  0  0  0  0  0  0  0  0
   14.4790   14.8620    4.5670 C   0  0  0  0  0  0  0  0  0  0  0  0
   15.8080   15.3240    4.5970 C   0  0  0  0  0  0  0  0  0  0  0  0
   16.1350   16.4720    5.3390 C   0  0  0  0  0  0  0  0  0  0  0  0
   17.4430   16.9510    5.3850 C   0  0  0  0  0  0  0  0  0  0  0  0
   18.4440   16.2870    4.6900 C   0  0  0  0  0  0  0  0  0  0  0  0
   18.1370   15.1450    3.9490 C   0  0  0  0  0  0  0  0  0  0  0  0
   16.8170   14.6330    3.8820 C   0  0  0  0  0  0  0  0  0  0  0  0
   16.4330   13.4840    3.1510 C   0  0  0  0  0  0  0  0  0  0  0  0
   15.1090   13.0450    3.1380 C   0  0  0  0  0  0  0  0  0  0  0  0
   12.0560   13.3280    4.9380 O   0  0  0  0  0  1  0  0  0  0  0  0
   12.6760   13.2460    3.8250 C   0  0  0  0  0  0  0  0  0  0  0  0
   12.2010   12.8130    2.7310 O   0  0  0  0  0  0  0  0  0  0  0  0
   14.8410   11.9200    2.3990 O   0  0  0  0  0  0  0  0  0  0  0  0
   19.2030   14.5720    3.3030 O   0  0  0  0  0  0  0  0  0  0  0  0
   13.7093   15.4117    5.1286 H   0  0  0  0  0  0  0  0  0  0  0  0
   15.3454   17.0012    5.8926 H   0  0  0  0  0  0  0  0  0  0  0  0
   17.6810   17.8517    5.9698 H   0  0  0  0  0  0  0  0  0  0  0  0
   19.4782   16.6604    4.7232 H   0  0  0  0  0  0  0  0  0  0  0  0
   17.1923   12.9268    2.5826 H   0  0  0  0  0  0  0  0  0  0  0  0
   15.5710   11.4627    1.9111 H   0  0  0  0  0  0  0  0  0  0  0  0
   19.0706   13.7580    2.7554 H   0  0  0  0  0  0  0  0  0  0  0  0
  2  1  2  0
  3  2  1  0
  4  3  2  0
  5  4  1  0
  6  5  2  0
  7  6  1  0
  8  3  1  0
  8  7  2  0
  9  8  1  0
 10  1  1  0
 10  9  2  0
 12 11  1  0
 12  1  1  0
 13 12  2  0
 14 10  1  0
 15  7  1  0
  2 16  1  0
  4 17  1  0
  5 18  1  0
  6 19  1  0
  9 20  1  0
 14 21  1  0
 15 22  1  0
M  CHG  1  11  -1
M  END
$$$$
=
     RDKit          3D

 35 36  0  0  0  0  0  0  0  0999 V2000
   17.5650   16.9100    5.2310 C   0  0  0  0  0  0  0  0  0  0  0  0
   17.2510   17.5090    6.2590 O   0  0  0  0  0  0  0  0  0  0  0  0
   16.6550   15.8300    4.7340 C   0  0  0  0  0  0  0  0  0  0  0  0
   15.3530   15.6590    5.2170 C   0  0  0  0  0  0  0  0  0  0  0  0
   14.5460   14.6270    4.7240 C   0  0  0  0  0  0  0  0  0  0  0  0
   15.0290   13.7400    3.7500 C   0  0  0  0  0  0  0  0  0  0  0  0
   16.3330   13.9170    3.2650 C   0  0  0  0  0  0  0  0  0  0  0  0
   17.1380   14.9480    3.7570 C   0  0  0  0  0  0  0  0  0  0  0  0
   14.1520   12.6420    3.2040 C   0  0  0  0  0  0  0  0  0  0  0  0
   14.6990   12.0200    2.1250 F   0  0  0  0  0  0  0  0  0  0  0  0
   13.9020   11.6570    4.1140 F   0  0  0  0  0  0  0  0  0  0  0  0
   12.9260   13.0830    2.7990 F   0  0  0  0  0  0  0  0  0  0  0  0
   18.7990   17.2570    4.4120 C   0  0  0  0  0  0  0  0  0  0  0  0
   20.9930   16.2140    5.1960 C   0  0  2  0  0  0  0  0  0  0  0  0
   22.4290   16.7540    5.2340 C   0  0  0  0  0  0  0  0  0  0  0  0
   22.3060   18.2630    5.3920 C   0  0  0  0  0  0  0  0  0  0  0  0
   20.9720   18.5880    4.7440 C   0  0  0  0  0  0  0  0  0  0  0  0
   20.0720   17.4560    5.2430 C   0  0  1  0  0  0  0  0  0  0  0  0
   21.1140   15.5050    7.4430 O   0  0  0  0  0  1  0  0  0  0  0  0
   20.5760   15.2560    6.3240 C   0  0  0  0  0  0  0  0  0  0  0  0
   19.7630   14.3430    6.0170 O   0  0  0  0  0  0  0  0  0  0  0  0
   14.9616   16.3390    5.9880 H   0  0  0  0  0  0  0  0  0  0  0  0
   13.5207   14.5100    5.1048 H   0  0  0  0  0  0  0  0  0  0  0  0
   16.7249   13.2396    2.4920 H   0  0  0  0  0  0  0  0  0  0  0  0
   18.1619   15.0689    3.3735 H   0  0  0  0  0  0  0  0  0  0  0  0
   18.9785   16.4408    3.6967 H   0  0  0  0  0  0  0  0  0  0  0  0
   18.5905   18.2184    3.9198 H   0  0  0  0  0  0  0  0  0  0  0  0
   20.9133   15.6008    4.2863 H   0  0  0  0  0  0  0  0  0  0  0  0
   22.9766   16.3240    6.0856 H   0  0  0  0  0  0  0  0  0  0  0  0
   22.9835   16.4884    4.3219 H   0  0  0  0  0  0  0  0  0  0  0  0
   22.3048   18.5468    6.4547 H   0  0  0  0  0  0  0  0  0  0  0  0
   23.1449   18.8082    4.9347 H   0  0  0  0  0  0  0  0  0  0  0  0
   20.5980   19.5678    5.0757 H   0  0  0  0  0  0  0  0  0  0  0  0
   21.0237   18.6538    3.6472 H   0  0  0  0  0  0  0  0  0  0  0  0
   19.6772   17.6713    6.2469 H   0  0  0  0  0  0  0  0  0  0  0  0
  2  1  2  0
  3  1  1  0
  4  3  2  0
  5  4  1  0
  6  5  2  0
  7  6  1  0
  8  7  2  0
  8  3  1  0
  9  6  1  0
 10  9  1  0
 11  9  1  0
 12  9  1  0
 13  1  1  0
 15 14  1  0
 16 15  1  0
 17 16  1  0
 18 14  1  0
 18 17  1  0
 18 13  1  0
 20 14  1  0
 20 19  1  0
 21 20  2  0
  4 22  1  0
  5 23  1  0
  7 24  1  0
  8 25  1  0
 13 26  1  0
 13 27  1  0
 14 28  1  6
 15 29  1  0
 15 30  1  0
 16 31  1  0
 16 32  1  0
 17 33  1  0
 17 34  1  0
 18 35  1  1
M  CHG  1  19  -1
M  END
$$$$
=
     RDKit          3D

 21 22  0  0  0  0  0  0  0  0999 V2000
   15.7080   14.5110    3.7060 C   0  0  0  0  0  0  0  0  0  0  0  0
   15.9220   13.2090    3.2330 C   0  0  0  0  0  0  0  0  0  0  0  0
   17.1600   12.8080    2.9060 F   0  0  0  0  0  0  0  0  0  0  0  0
   14.8840   12.2850    3.0810 C   0  0  0  0  0  0  0  0  0  0  0  0
   13.5780   12.6450    3.3970 C   0  0  0  0  0  0  0  0  0  0  0  0
   13.3240   13.9320    3.8580 C   0  0  0  0  0  0  0  0  0  0  0  0
   14.3760   14.8410    4.0040 C   0  0  0  0  0  0  0  0  0  0  0  0
   14.0770   16.0740    4.4430 F   0  0  0  0  0  0  0  0  0  0  0  0
   17.9640   15.3020    4.8390 C   0  0  1  0  0  0  0  0  0  0  0  0
   16.9050   16.3440    5.1200 C   0  0  0  0  0  0  0  0  0  0  0  0
   16.8210   15.5230    3.8560 C   0  0  2  0  0  0  0  0  0  0  0  0
   20.0110   15.0310    3.7350 O   0  0  0  0  0  1  0  0  0  0  0  0
   19.3150   15.7810    4.4900 C   0  0  0  0  0  0  0  0  0  0  0  0
   19.6950   16.8990    4.9610 O   0  0  0  0  0  0  0  0  0  0  0  0
   15.1003   11.2719    2.7110 H   0  0  0  0  0  0  0  0  0  0  0  0
   12.7573   11.9213    3.2837 H   0  0  0  0  0  0  0  0  0  0  0  0
   12.2963   14.2346    4.1076 H   0  0  0  0  0  0  0  0  0  0  0  0
   18.3687   14.4251    5.3656 H   0  0  0  0  0  0  0  0  0  0  0  0
   16.1771   16.1819    5.9286 H   0  0  0  0  0  0  0  0  0  0  0  0
   16.9183   17.4207    5.3447 H   0  0  0  0  0  0  0  0  0  0  0  0
   16.7668   15.7339    2.7778 H   0  0  0  0  0  0  0  0  0  0  0  0
  2  1  2  0
  3  2  1  0
  4  2  1  0
  5  4  2  0
  6  5  1  0
  7  6  2  0
  7  1  1  0
  8  7  1  0
 10  9  1  0
 11  1  1  0
 11 10  1  0
 11  9  1  0
 13 12  1  0
 13  9  1  0
 14 13  2  0
  4 15  1  0
  5 16  1  0
  6 17  1  0
  9 18  1  1
 10 19  1  0
 10 20  1  0
 11 21  1  6
M  CHG  1  12  -1
M  END
$$$$
=
     RDKit          3D

 38 40  0  0  0  0  0  0  0  0999 V2000
   29.3910   27.0350   14.8860 C   0  0  0  0  0  0  0  0  0  0  0  0
   30.5610   27.4590   15.5380 C   0  0  0  0  0  0  0  0  0  0  0  0
   30.6730   28.7580   16.0370 C   0  0  0  0  0  0  0  0  0  0  0  0
   29.6110   29.6470   15.9000 C   0  0  0  0  0  0  0  0  0  0  0  0
   28.4350   29.2380   15.2690 C   0  0  0  0  0  0  0  0  0  0  0  0
   28.3180   27.9360   14.7650 C   0  0  0  0  0  0  0  0  0  0  0  0
   28.8270   24.2060   12.8180 C   0  0  0  0  0  0  0  0  0  0  0  0
   29.3830   23.4980   13.8680 C   0  0  0  0  0  0  0  0  0  0  0  0
   29.7010   24.4380   14.8760 C   0  0  0  0  0  0  0  0  0  0  0  0
   29.3270   25.6710   14.3860 C   0  0  0  0  0  0  0  0  0  0  0  0
   28.7890   25.5380   13.1420 O   0  0  0  0  0  0  0  0  0  0  0  0
   28.9590   22.5620   11.0240 O   0  0  0  0  0  1  0  0  0  0  0  0
   28.3160   23.5650   11.4610 C   0  0  0  0  0  0  0  0  0  0  0  0
   27.3020   24.1150   10.9290 O   0  0  0  0  0  0  0  0  0  0  0  0
   27.0910   27.5520   14.1280 N   0  0  0  0  0  0  0  0  0  0  0  0
   25.8370   26.9820   15.1020 S   0  0  0  0  0  6  0  0  0  0  0  0
   26.2750   25.8310   15.8620 O   0  0  0  0  0  0  0  0  0  0  0  0
   25.2460   28.1320   15.7510 O   0  0  0  0  0  0  0  0  0  0  0  0
   24.6430   26.4310   13.9010 C   0  0  0  0  0  0  0  0  0  0  0  0
   25.0610   26.1960   12.5850 C   0  0  0  0  0  0  0  0  0  0  0  0
   24.1330   25.7790   11.6290 C   0  0  0  0  0  0  0  0  0  0  0  0
   22.7890   25.6080   11.9980 C   0  0  0  0  0  0  0  0  0  0  0  0
   22.3700   25.8520   13.3160 C   0  0  0  0  0  0  0  0  0  0  0  0
   23.3020   26.2700   14.2690 C   0  0  0  0  0  0  0  0  0  0  0  0
   21.8090   25.1710   10.9940 N   0  0  0  0  0  4  0  0  0  0  0  0
   20.9710   25.9970   10.6070 O   0  0  0  0  0  0  0  0  0  0  0  0
   21.8800   24.0000   10.5930 O   0  0  0  0  0  1  0  0  0  0  0  0
   31.4002   26.7579   15.6569 H   0  0  0  0  0  0  0  0  0  0  0  0
   31.5987   29.0782   16.5374 H   0  0  0  0  0  0  0  0  0  0  0  0
   29.6984   30.6722   16.2891 H   0  0  0  0  0  0  0  0  0  0  0  0
   27.5957   29.9416   15.1669 H   0  0  0  0  0  0  0  0  0  0  0  0
   29.5467   22.4111   13.9110 H   0  0  0  0  0  0  0  0  0  0  0  0
   30.1558   24.2272   15.8551 H   0  0  0  0  0  0  0  0  0  0  0  0
   26.9791   27.6223   13.1065 H   0  0  0  0  0  0  0  0  0  0  0  0
   26.1154   26.3393   12.3061 H   0  0  0  0  0  0  0  0  0  0  0  0
   24.4523   25.5858   10.5942 H   0  0  0  0  0  0  0  0  0  0  0  0
   21.3151   25.7149   13.5960 H   0  0  0  0  0  0  0  0  0  0  0  0
   22.9840   26.4715   15.3026 H   0  0  0  0  0  0  0  0  0  0  0  0
  2  1  2  0
  3  2  1  0
  4  3  2  0
  5  4  1  0
  6  1  1  0
  6  5  2  0
  8  7  2  0
  9  8  1  0
 10  9  2  0
 10  1  1  0
 11 10  1  0
 11  7  1  0
 13 12  1  0
 13  7  1  0
 14 13  2  0
 15  6  1  0
 16 15  1  0
 17 16  2  0
 18 16  2  0
 19 16  1  0
 20 19  2  0
 21 20  1  0
 22 21  2  0
 23 22  1  0
 24 23  2  0
 24 19  1  0
 25 22  1  0
 26 25  2  0
 27 25  1  0
  2 28  1  0
  3 29  1  0
  4 30  1  0
  5 31  1  0
  8 32  1  0
  9 33  1  0
 15 34  1  0
 20 35  1  0
 21 36  1  0
 23 37  1  0
 24 38  1  0
M  CHG  3  12  -1  25   1  27  -1
M  END
$$$$
=
     RDKit          3D

 29 30  0  0  0  0  0  0  0  0999 V2000
   19.7360   15.6390    4.9650 C   0  0  2  0  0  0  0  0  0  0  0  0
   20.2530   14.7560    6.1050 C   0  0  0  0  0  0  0  0  0  0  0  0
   21.4990   15.3450    6.4800 N   0  0  0  0  0  0  0  0  0  0  0  0
   21.5880   16.6690    6.0900 C   0  0  0  0  0  0  0  0  0  0  0  0
   22.5020   17.3980    6.4440 O   0  0  0  0  0  0  0  0  0  0  0  0
   20.3390   17.0150    5.3290 C   0  0  1  0  0  0  0  0  0  0  0  0
   17.6470   14.6500    3.8740 C   0  0  0  0  0  0  0  0  0  0  0  0
   16.2610   14.5350    3.7280 C   0  0  0  0  0  0  0  0  0  0  0  0
   15.4160   15.3710    4.4490 C   0  0  0  0  0  0  0  0  0  0  0  0
   15.9600   16.3170    5.3110 C   0  0  0  0  0  0  0  0  0  0  0  0
   17.3480   16.4100    5.4730 C   0  0  0  0  0  0  0  0  0  0  0  0
   18.2240   15.5550    4.7850 C   0  0  0  0  0  0  0  0  0  0  0  0
   17.8770   12.5020    3.1120 C   0  0  0  0  0  0  0  0  0  0  0  0
   18.4360   13.8180    3.1170 O   0  0  0  0  0  0  0  0  0  0  0  0
   20.6750   17.8260    4.0950 C   0  0  0  0  0  0  0  0  0  0  0  0
   19.6810   18.4070    3.5640 O   0  0  0  0  0  0  0  0  0  0  0  0
   21.8690   17.7780    3.6880 O   0  0  0  0  0  1  0  0  0  0  0  0
   20.0456   15.3355    3.9540 H   0  0  0  0  0  0  0  0  0  0  0  0
   19.5500   14.7628    6.9510 H   0  0  0  0  0  0  0  0  0  0  0  0
   20.3632   13.7045    5.8013 H   0  0  0  0  0  0  0  0  0  0  0  0
   22.2445   14.8423    6.9824 H   0  0  0  0  0  0  0  0  0  0  0  0
   19.6365   17.6348    5.9055 H   0  0  0  0  0  0  0  0  0  0  0  0
   15.8398   13.7840    3.0435 H   0  0  0  0  0  0  0  0  0  0  0  0
   14.3250   15.2848    4.3384 H   0  0  0  0  0  0  0  0  0  0  0  0
   15.2971   16.9953    5.8681 H   0  0  0  0  0  0  0  0  0  0  0  0
   17.7608   17.1691    6.1538 H   0  0  0  0  0  0  0  0  0  0  0  0
   17.7322   12.1612    4.1478 H   0  0  0  0  0  0  0  0  0  0  0  0
   16.9077   12.5173    2.5922 H   0  0  0  0  0  0  0  0  0  0  0  0
   18.5610   11.8150    2.5922 H   0  0  0  0  0  0  0  0  0  0  0  0
  2  1  1  0
  3  2  1  0
  4  3  1  0
  5  4  2  0
  6  1  1  0
  6  4  1  0
  8  7  2  0
  9  8  1  0
 10  9  2  0
 11 10  1  0
 12  7  1  0
 12  1  1  0
 12 11  2  0
 14 13  1  0
 14  7  1  0
 15  6  1  0
 16 15  2  0
 17 15  1  0
  1 18  1  6
  2 19  1  0
  2 20  1  0
  3 21  1  0
  6 22  1  1
  8 23  1  0
  9 24  1  0
 10 25  1  0
 11 26  1  0
 13 27  1  0
 13 28  1  0
 13 29  1  0
M  CHG  1  17  -1
M  END
$$$$
=
     RDKit          3D

 29 30  0  0  0  0  0  0  0  0999 V2000
   17.9610   15.0560    3.7000 C   0  0  0  0  0  0  0  0  0  0  0  0
   19.0660   14.2310    3.7900 N   0  0  0  0  0  0  0  0  0  0  0  0
   20.1320   15.0190    3.8370 N   0  0  0  0  0  0  0  0  0  0  0  0
   19.6230   16.2680    3.8340 N   0  0  0  0  0  0  0  0  0  0  0  0
   18.3060   16.3460    3.5720 N   0  0  0  0  0  0  0  0  0  0  0  0
   15.5960   15.0340    4.5860 C   0  0  0  0  0  0  0  0  0  0  0  0
   14.2980   14.5060    4.5480 C   0  0  0  0  0  0  0  0  0  0  0  0
   13.9910   13.4470    3.6960 C   0  0  0  0  0  0  0  0  0  0  0  0
   14.9770   12.9190    2.8700 C   0  0  0  0  0  0  0  0  0  0  0  0
   16.2660   13.4600    2.8870 C   0  0  0  0  0  0  0  0  0  0  0  0
   16.5970   14.5360    3.7340 C   0  0  0  0  0  0  0  0  0  0  0  0
   16.3720   15.6880    6.6780 C   0  0  0  0  0  0  0  0  0  0  0  0
   15.7710   16.0920    5.4420 O   0  0  0  0  0  0  0  0  0  0  0  0
   20.4690   17.4390    3.9270 C   0  0  0  0  0  0  0  0  0  0  0  0
   20.6280   17.9500    5.3460 C   0  0  0  0  0  0  0  0  0  0  0  0
   22.0020   17.4880    5.7970 C   0  0  0  0  0  0  0  0  0  0  0  0
   22.9710   18.1170    5.2950 O   0  0  0  0  0  0  0  0  0  0  0  0
   21.9920   16.5430    6.6320 O   0  0  0  0  0  1  0  0  0  0  0  0
   13.5164   14.9306    5.1952 H   0  0  0  0  0  0  0  0  0  0  0  0
   12.9731   13.0305    3.6770 H   0  0  0  0  0  0  0  0  0  0  0  0
   14.7429   12.0759    2.2034 H   0  0  0  0  0  0  0  0  0  0  0  0
   17.0369   13.0372    2.2260 H   0  0  0  0  0  0  0  0  0  0  0  0
   15.7832   16.0838    7.5186 H   0  0  0  0  0  0  0  0  0  0  0  0
   16.3961   14.5896    6.7322 H   0  0  0  0  0  0  0  0  0  0  0  0
   17.3982   16.0804    6.7322 H   0  0  0  0  0  0  0  0  0  0  0  0
   21.4641   17.1835    3.5339 H   0  0  0  0  0  0  0  0  0  0  0  0
   19.9870   18.2376    3.3441 H   0  0  0  0  0  0  0  0  0  0  0  0
   20.5663   19.0481    5.3675 H   0  0  0  0  0  0  0  0  0  0  0  0
   19.8346   17.5694    6.0060 H   0  0  0  0  0  0  0  0  0  0  0  0
  2  1  1  0
  3  2  2  0
  4  3  1  0
  5  4  1  0
  5  1  2  0
  7  6  2  0
  8  7  1  0
  9  8  2  0
 10  9  1  0
 11 10  2  0
 11  6  1  0
 11  1  1  0
 13  6  1  0
 13 12  1  0
 14  4  1  0
 15 14  1  0
 16 15  1  0
 17 16  2  0
 18 16  1  0
  7 19  1  0
  8 20  1  0
  9 21  1  0
 10 22  1  0
 12 23  1  0
 12 24  1  0
 12 25  1  0
 14 26  1  0
 14 27  1  0
 15 28  1  0
 15 29  1  0
M  CHG  1  18  -1
M  END
$$$$
=
     RDKit          3D

 32 33  0  0  0  0  0  0  0  0999 V2000
   15.0400   14.5240    4.2470 C   0  0  0  0  0  0  0  0  0  0  0  0
   15.1670   15.4560    5.2790 C   0  0  0  0  0  0  0  0  0  0  0  0
   16.3380   16.2050    5.4280 C   0  0  0  0  0  0  0  0  0  0  0  0
   17.4040   16.0290    4.5400 C   0  0  0  0  0  0  0  0  0  0  0  0
   17.2810   15.0940    3.5080 C   0  0  0  0  0  0  0  0  0  0  0  0
   16.1050   14.3440    3.3650 C   0  0  0  0  0  0  0  0  0  0  0  0
   18.6280   16.8480    4.7130 C   0  0  0  0  0  0  0  0  0  0  0  0
   18.7380   17.7670    5.6210 N   0  0  0  0  0  0  0  0  0  0  0  0
   20.0490   18.2990    5.5190 O   0  0  0  0  0  0  0  0  0  0  0  0
   20.8280   17.4410    4.6480 C   0  0  1  0  0  0  0  0  0  0  0  0
   19.7970   16.7360    3.7950 C   0  0  0  0  0  0  0  0  0  0  0  0
   21.7330   18.3340    3.8030 C   0  0  0  0  0  0  0  0  0  0  0  0
   21.6980   16.4700    5.5070 C   0  0  0  0  0  0  0  0  0  0  0  0
   22.3030   16.9840    6.4950 O   0  0  0  0  0  0  0  0  0  0  0  0
   21.7620   15.2720    5.0930 O   0  0  0  0  0  1  0  0  0  0  0  0
   13.8450   13.8630    4.2240 O   0  0  0  0  0  0  0  0  0  0  0  0
   12.3620   12.5640    2.8070 C   0  0  0  0  0  0  0  0  0  0  0  0
   13.7330   12.6680    3.4540 C   0  0  0  0  0  0  0  0  0  0  0  0
   14.3352   15.6027    5.9836 H   0  0  0  0  0  0  0  0  0  0  0  0
   16.4212   16.9352    6.2464 H   0  0  0  0  0  0  0  0  0  0  0  0
   18.1125   14.9457    2.8033 H   0  0  0  0  0  0  0  0  0  0  0  0
   16.0219   13.6084    2.5513 H   0  0  0  0  0  0  0  0  0  0  0  0
   19.6247   17.2554    2.8408 H   0  0  0  0  0  0  0  0  0  0  0  0
   20.0582   15.7149    3.4802 H   0  0  0  0  0  0  0  0  0  0  0  0
   22.3590   18.9517    4.4638 H   0  0  0  0  0  0  0  0  0  0  0  0
   22.3769   17.7076    3.1682 H   0  0  0  0  0  0  0  0  0  0  0  0
   21.1152   18.9862    3.1682 H   0  0  0  0  0  0  0  0  0  0  0  0
   11.5909   12.5055    3.5893 H   0  0  0  0  0  0  0  0  0  0  0  0
   12.1834   13.4512    2.1817 H   0  0  0  0  0  0  0  0  0  0  0  0
   12.3193   11.6600    2.1817 H   0  0  0  0  0  0  0  0  0  0  0  0
   13.8870   11.8002    4.1121 H   0  0  0  0  0  0  0  0  0  0  0  0
   14.4945   12.6896    2.6604 H   0  0  0  0  0  0  0  0  0  0  0  0
  2  1  2  0
  3  2  1  0
  4  3  2  0
  5  4  1  0
  6  1  1  0
  6  5  2  0
  7  4  1  0
  8  7  2  0
  9  8  1  0
 10  9  1  0
 11 10  1  0
 11  7  1  0
 12 10  1  0
 10 13  1  1
 14 13  2  0
 15 13  1  0
 16  1  1  0
 18 17  1  0
 18 16  1  0
  2 19  1  0
  3 20  1  0
  5 21  1  0
  6 22  1  0
 11 23  1  0
 11 24  1  0
 12 25  1  0
 12 26  1  0
 12 27  1  0
 17 28  1  0
 17 29  1  0
 17 30  1  0
 18 31  1  0
 18 32  1  0
M  CHG  1  15  -1
M  END
$$$$
=
     RDKit          3D

 25 26  0  0  0  0  0  0  0  0999 V2000
   18.3290   13.3910    2.9600 F   0  0  0  0  0  0  0  0  0  0  0  0
   18.3420   14.4200    3.8200 C   0  0  0  0  0  0  0  0  0  0  0  0
   19.5430   14.7060    4.4700 C   0  0  0  0  0  0  0  0  0  0  0  0
   19.6280   15.7590    5.3950 C   0  0  0  0  0  0  0  0  0  0  0  0
   18.4710   16.5110    5.6510 C   0  0  0  0  0  0  0  0  0  0  0  0
   17.2780   16.2140    4.9950 C   0  0  0  0  0  0  0  0  0  0  0  0
   17.1950   15.1750    4.0670 C   0  0  0  0  0  0  0  0  0  0  0  0
   16.1930   16.9580    5.2650 F   0  0  0  0  0  0  0  0  0  0  0  0
   20.9310   16.0710    6.0960 C   0  0  0  0  0  0  0  0  0  0  0  0
   21.1140   15.5360    7.2330 O   0  0  0  0  0  0  0  0  0  0  0  0
   21.7360   16.8440    5.4910 O   0  0  0  0  0  1  0  0  0  0  0  0
   15.9620   14.9810    3.4890 O   0  0  0  0  0  0  0  0  0  0  0  0
   15.1670   13.8490    3.8930 C   0  0  0  0  0  0  0  0  0  0  0  0
   14.8350   12.7870    2.8100 C   0  0  0  0  0  0  0  0  0  0  0  0
   13.4220   12.7010    3.4130 C   0  0  0  0  0  0  0  0  0  0  0  0
   13.6400   14.1270    3.9470 C   0  0  0  0  0  0  0  0  0  0  0  0
   20.4347   14.0988    4.2551 H   0  0  0  0  0  0  0  0  0  0  0  0
   18.5061   17.3396    6.3736 H   0  0  0  0  0  0  0  0  0  0  0  0
   15.7703   13.5867    4.7746 H   0  0  0  0  0  0  0  0  0  0  0  0
   14.8695   13.1613    1.7762 H   0  0  0  0  0  0  0  0  0  0  0  0
   15.4579   11.8910    2.6716 H   0  0  0  0  0  0  0  0  0  0  0  0
   12.6124   12.6059    2.6744 H   0  0  0  0  0  0  0  0  0  0  0  0
   13.1230   11.8739    4.0737 H   0  0  0  0  0  0  0  0  0  0  0  0
   13.2961   14.9256    3.2732 H   0  0  0  0  0  0  0  0  0  0  0  0
   13.1506   14.4787    4.8672 H   0  0  0  0  0  0  0  0  0  0  0  0
  2  1  1  0
  3  2  2  0
  4  3  1  0
  5  4  2  0
  6  5  1  0
  7  6  2  0
  7  2  1  0
  8  6  1  0
  9  4  1  0
 10  9  2  0
 11  9  1  0
 12  7  1  0
 13 12  1  0
 14 13  1  0
 15 14  1  0
 16 15  1  0
 16 13  1  0
  3 17  1  0
  5 18  1  0
 13 19  1  0
 14 20  1  0
 14 21  1  0
 15 22  1  0
 15 23  1  0
 16 24  1  0
 16 25  1  0
M  CHG  1  11  -1
M  END
$$$$
=
     RDKit          3D

 33 34  0  0  0  0  0  0  0  0999 V2000
   18.5750   12.4500    3.4550 O   0  0  0  0  0  0  0  0  0  0  0  0
   17.7580   13.3640    3.4290 C   0  0  0  0  0  0  0  0  0  0  0  0
   17.9410   14.6810    3.7940 N   0  0  0  0  0  0  0  0  0  0  0  0
   19.2460   15.1650    3.9040 N   0  0  0  0  0  0  0  0  0  0  0  0
   19.9040   14.9800    5.1740 C   0  0  0  0  0  0  0  0  0  0  0  0
   21.1570   15.8150    5.0210 C   0  0  1  0  0  0  0  0  0  0  0  0
   20.7240   16.9730    4.1200 C   0  0  0  0  0  0  0  0  0  0  0  0
   19.5440   16.4150    3.3640 C   0  0  0  0  0  0  0  0  0  0  0  0
   18.9160   16.9830    2.4800 O   0  0  0  0  0  0  0  0  0  0  0  0
   21.6820   16.2450    6.3800 C   0  0  0  0  0  0  0  0  0  0  0  0
   22.5630   17.1470    6.3560 O   0  0  0  0  0  0  0  0  0  0  0  0
   21.1920   15.6340    7.3690 O   0  0  0  0  0  1  0  0  0  0  0  0
   16.3260   13.0650    2.9410 C   0  0  0  0  0  0  0  0  0  0  0  0
   16.1650   12.4070    1.9230 O   0  0  0  0  0  0  0  0  0  0  0  0
   15.3810   13.6190    3.7790 N   0  0  0  0  0  0  0  0  0  0  0  0
   13.9820   13.5630    3.6660 C   0  0  0  0  0  0  0  0  0  0  0  0
   13.2430   14.5000    4.3980 C   0  0  0  0  0  0  0  0  0  0  0  0
   11.8470   14.5100    4.3390 C   0  0  0  0  0  0  0  0  0  0  0  0
   11.1790   13.5810    3.5440 C   0  0  0  0  0  0  0  0  0  0  0  0
   11.9070   12.6460    2.8130 C   0  0  0  0  0  0  0  0  0  0  0  0
   13.3040   12.6370    2.8730 C   0  0  0  0  0  0  0  0  0  0  0  0
   17.1341   15.2932    3.9811 H   0  0  0  0  0  0  0  0  0  0  0  0
   19.2801   15.3480    6.0018 H   0  0  0  0  0  0  0  0  0  0  0  0
   20.1072   13.9255    5.4121 H   0  0  0  0  0  0  0  0  0  0  0  0
   22.0032   15.2750    4.5712 H   0  0  0  0  0  0  0  0  0  0  0  0
   20.4285   17.8470    4.7191 H   0  0  0  0  0  0  0  0  0  0  0  0
   21.5294   17.3216    3.4568 H   0  0  0  0  0  0  0  0  0  0  0  0
   15.7470   14.1390    4.5893 H   0  0  0  0  0  0  0  0  0  0  0  0
   13.7666   15.2358    5.0260 H   0  0  0  0  0  0  0  0  0  0  0  0
   11.2763   15.2501    4.9192 H   0  0  0  0  0  0  0  0  0  0  0  0
   10.0801   13.5862    3.4940 H   0  0  0  0  0  0  0  0  0  0  0  0
   11.3810   11.9113    2.1857 H   0  0  0  0  0  0  0  0  0  0  0  0
   13.8716   11.8955    2.2916 H   0  0  0  0  0  0  0  0  0  0  0  0
  2  1  2  0
  3  2  1  0
  4  3  1  0
  5  4  1  0
  6  5  1  0
  7  6  1  0
  8  4  1  0
  8  7  1  0
  9  8  2  0
 10  6  1  0
 11 10  2  0
 12 10  1  0
 13  2  1  0
 14 13  2  0
 15 13  1  0
 16 15  1  0
 17 16  2  0
 18 17  1  0
 19 18  2  0
 20 19  1  0
 21 20  2  0
 21 16  1  0
  3 22  1  0
  5 23  1  0
  5 24  1  0
  6 25  1  6
  7 26  1  0
  7 27  1  0
 15 28  1  0
 17 29  1  0
 18 30  1  0
 19 31  1  0
 20 32  1  0
 21 33  1  0
M  CHG  1  12  -1
M  END
$$$$
=
     RDKit          3D

 49 51  0  0  0  0  0  0  0  0999 V2000
   23.3020   25.9150   13.2360 C   0  0  0  0  0  0  0  0  0  0  0  0
   23.2490   26.6490   12.2510 O   0  0  0  0  0  0  0  0  0  0  0  0
   22.3930   24.8360   13.3700 N   0  0  0  0  0  0  0  0  0  0  0  0
   21.7600   24.2030   12.2860 C   0  0  0  0  0  0  0  0  0  0  0  0
   21.7320   24.5220   10.9120 C   0  0  0  0  0  0  0  0  0  0  0  0
   21.0820   23.6570   10.0270 C   0  0  0  0  0  0  0  0  0  0  0  0
   20.4850   22.4920   10.4850 C   0  0  0  0  0  0  0  0  0  0  0  0
   20.5220   22.1710   11.8440 C   0  0  0  0  0  0  0  0  0  0  0  0
   21.1590   23.0340   12.7640 C   0  0  0  0  0  0  0  0  0  0  0  0
   21.3520   23.0090   14.1660 C   0  0  0  0  0  0  0  0  0  0  0  0
   21.9820   24.1880   14.5380 C   0  0  0  0  0  0  0  0  0  0  0  0
   22.1460   24.7170   15.9230 C   0  0  0  0  0  0  0  0  0  0  0  0
   20.8630   21.8600   15.1480 C   0  0  0  0  0  0  0  0  0  0  0  0
   19.6450   21.8720   15.4990 O   0  0  0  0  0  0  0  0  0  0  0  0
   21.7410   21.0090   15.4950 O   0  0  0  0  0  1  0  0  0  0  0  0
   24.3480   26.0150   14.3280 C   0  0  0  0  0  0  0  0  0  0  0  0
   25.4450   25.1220   14.0680 O   0  0  0  0  0  0  0  0  0  0  0  0
   28.2820   29.0910   13.8940 C   0  0  0  0  0  0  0  0  0  0  0  0
   27.8930   27.7440   13.3630 C   0  0  0  0  0  0  0  0  0  0  0  0
   28.5320   27.2060   12.2420 C   0  0  0  0  0  0  0  0  0  0  0  0
   28.1380   25.9670   11.7240 C   0  0  0  0  0  0  0  0  0  0  0  0
   27.0910   25.2350   12.3080 C   0  0  0  0  0  0  0  0  0  0  0  0
   26.4720   25.7810   13.4440 C   0  0  0  0  0  0  0  0  0  0  0  0
   26.8470   27.0290   13.9510 C   0  0  0  0  0  0  0  0  0  0  0  0
   26.6590   23.8960   11.7350 C   0  0  0  0  0  0  0  0  0  0  0  0
   25.4470   24.0260   10.8060 C   0  0  0  0  0  0  0  0  0  0  0  0
   27.8220   23.2070   11.0160 C   0  0  0  0  0  0  0  0  0  0  0  0
   22.2149   25.4386   10.5423 H   0  0  0  0  0  0  0  0  0  0  0  0
   21.0436   23.9030    8.9556 H   0  0  0  0  0  0  0  0  0  0  0  0
   19.9809   21.8188    9.7760 H   0  0  0  0  0  0  0  0  0  0  0  0
   20.0529   21.2418   12.1998 H   0  0  0  0  0  0  0  0  0  0  0  0
   21.9012   23.9273   16.6485 H   0  0  0  0  0  0  0  0  0  0  0  0
   23.1868   25.0410   16.0709 H   0  0  0  0  0  0  0  0  0  0  0  0
   21.4710   25.5729   16.0709 H   0  0  0  0  0  0  0  0  0  0  0  0
   24.7259   27.0471   14.3720 H   0  0  0  0  0  0  0  0  0  0  0  0
   23.8853   25.7354   15.2860 H   0  0  0  0  0  0  0  0  0  0  0  0
   28.2752   29.0675   14.9937 H   0  0  0  0  0  0  0  0  0  0  0  0
   29.2910   29.3477   13.5389 H   0  0  0  0  0  0  0  0  0  0  0  0
   27.5652   29.8461   13.5389 H   0  0  0  0  0  0  0  0  0  0  0  0
   29.3517   27.7614   11.7629 H   0  0  0  0  0  0  0  0  0  0  0  0
   28.6573   25.5593   10.8442 H   0  0  0  0  0  0  0  0  0  0  0  0
   26.3156   27.4498   14.8173 H   0  0  0  0  0  0  0  0  0  0  0  0
   26.3512   23.2684   12.5843 H   0  0  0  0  0  0  0  0  0  0  0  0
   24.5320   24.1241   11.4086 H   0  0  0  0  0  0  0  0  0  0  0  0
   25.5653   24.9166   10.1713 H   0  0  0  0  0  0  0  0  0  0  0  0
   25.3738   23.1306   10.1713 H   0  0  0  0  0  0  0  0  0  0  0  0
   28.5195   22.7938   11.7594 H   0  0  0  0  0  0  0  0  0  0  0  0
   27.4332   22.3934   10.3860 H   0  0  0  0  0  0  0  0  0  0  0  0
   28.3488   23.9388   10.3860 H   0  0  0  0  0  0  0  0  0  0  0  0
  2  1  2  0
  3  1  1  0
  4  3  1  0
  5  4  2  0
  6  5  1  0
  7  6  2  0
  8  7  1  0
  9  8  2  0
  9  4  1  0
 10  9  1  0
 11 10  2  0
 11  3  1  0
 12 11  1  0
 13 10  1  0
 14 13  2  0
 15 13  1  0
 16  1  1  0
 17 16  1  0
 19 18  1  0
 20 19  2  0
 21 20  1  0
 22 21  2  0
 23 22  1  0
 23 17  1  0
 24 23  2  0
 24 19  1  0
 25 22  1  0
 26 25  1  0
 27 25  1  0
  5 28  1  0
  6 29  1  0
  7 30  1  0
  8 31  1  0
 12 32  1  0
 12 33  1  0
 12 34  1  0
 16 35  1  0
 16 36  1  0
 18 37  1  0
 18 38  1  0
 18 39  1  0
 20 40  1  0
 21 41  1  0
 24 42  1  0
 25 43  1  0
 26 44  1  0
 26 45  1  0
 26 46  1  0
 27 47  1  0
 27 48  1  0
 27 49  1  0
M  CHG  1  15  -1
M  END
$$$$
=
     RDKit          3D

 51 53  0  0  0  0  0  0  0  0999 V2000
   16.0000   14.8290    3.9680 C   0  0  0  0  0  0  0  0  0  0  0  0
   14.5740   15.5560    4.5140 S   0  0  0  0  0  0  0  0  0  0  0  0
   13.6850   14.1040    4.4020 C   0  0  0  0  0  0  0  0  0  0  0  0
   14.4640   13.0560    3.9240 C   0  0  0  0  0  0  0  0  0  0  0  0
   15.8040   13.5140    3.5630 C   0  0  0  0  0  0  0  0  0  0  0  0
   13.9720   11.6460    3.8170 C   0  0  0  0  0  0  0  0  0  0  0  0
   16.8630   12.7620    2.8830 C   0  0  0  0  0  0  0  0  0  0  0  0
   16.7680   12.2740    1.7600 O   0  0  0  0  0  0  0  0  0  0  0  0
   17.9790   12.4830    3.6260 N   0  0  0  0  0  0  0  0  0  0  0  0
   17.1570   16.6590    5.9890 O   0  0  0  0  0  0  0  0  0  0  0  0
   17.7460   16.2910    4.9720 C   0  0  0  0  0  0  0  0  0  0  0  0
   17.2050   15.5170    3.9590 N   0  0  0  0  0  0  0  0  0  0  0  0
   19.1370   16.8640    4.6140 C   0  0  1  0  0  0  0  0  0  0  0  0
   19.4060   18.1870    5.3460 C   0  0  0  0  0  0  0  0  0  0  0  0
   20.6520   18.9030    4.8180 C   0  0  0  0  0  0  0  0  0  0  0  0
   21.6890   17.9620    4.2080 C   0  0  0  0  0  0  0  0  0  0  0  0
   21.6860   16.6070    4.9000 C   0  0  0  0  0  0  0  0  0  0  0  0
   20.3300   15.8940    4.7540 C   0  0  1  0  0  0  0  0  0  0  0  0
   20.1470   14.9320    5.9370 C   0  0  0  0  0  0  0  0  0  0  0  0
   20.7650   15.2190    6.9960 O   0  0  0  0  0  0  0  0  0  0  0  0
   19.3700   13.9660    5.6900 O   0  0  0  0  0  1  0  0  0  0  0  0
   12.2430   14.1040    4.8410 C   0  0  0  0  0  0  0  0  0  0  0  0
   11.2900   13.5880    3.7810 C   0  0  0  0  0  0  0  0  0  0  0  0
   11.7190   12.6530    2.8280 C   0  0  0  0  0  0  0  0  0  0  0  0
   10.8380   12.1760    1.8550 C   0  0  0  0  0  0  0  0  0  0  0  0
    9.5180   12.6220    1.8290 C   0  0  0  0  0  0  0  0  0  0  0  0
    9.0770   13.5450    2.7760 C   0  0  0  0  0  0  0  0  0  0  0  0
    9.9560   14.0220    3.7480 C   0  0  0  0  0  0  0  0  0  0  0  0
   13.8271   11.2307    4.8252 H   0  0  0  0  0  0  0  0  0  0  0  0
   13.0157   11.6316    3.2736 H   0  0  0  0  0  0  0  0  0  0  0  0
   14.7117   11.0398    3.2736 H   0  0  0  0  0  0  0  0  0  0  0  0
   18.7591   11.9576    3.2062 H   0  0  0  0  0  0  0  0  0  0  0  0
   18.0383   12.7986    4.6047 H   0  0  0  0  0  0  0  0  0  0  0  0
   17.7633   15.4433    3.0966 H   0  0  0  0  0  0  0  0  0  0  0  0
   19.0715   17.0500    3.5318 H   0  0  0  0  0  0  0  0  0  0  0  0
   18.5363   18.8473    5.2134 H   0  0  0  0  0  0  0  0  0  0  0  0
   19.5772   17.9544    6.4074 H   0  0  0  0  0  0  0  0  0  0  0  0
   20.3387   19.6216    4.0463 H   0  0  0  0  0  0  0  0  0  0  0  0
   21.1300   19.3932    5.6789 H   0  0  0  0  0  0  0  0  0  0  0  0
   21.4593   17.8196    3.1417 H   0  0  0  0  0  0  0  0  0  0  0  0
   22.6837   18.4137    4.3367 H   0  0  0  0  0  0  0  0  0  0  0  0
   22.4694   15.9772    4.4532 H   0  0  0  0  0  0  0  0  0  0  0  0
   21.8732   16.7698    5.9717 H   0  0  0  0  0  0  0  0  0  0  0  0
   20.3431   15.3277    3.8111 H   0  0  0  0  0  0  0  0  0  0  0  0
   12.1502   13.4669    5.7329 H   0  0  0  0  0  0  0  0  0  0  0  0
   11.9661   15.1488    5.0451 H   0  0  0  0  0  0  0  0  0  0  0  0
   12.7580   12.2923    2.8470 H   0  0  0  0  0  0  0  0  0  0  0  0
   11.1865   11.4474    1.1082 H   0  0  0  0  0  0  0  0  0  0  0  0
    8.8248   12.2461    1.0620 H   0  0  0  0  0  0  0  0  0  0  0  0
    8.0351   13.8973    2.7566 H   0  0  0  0  0  0  0  0  0  0  0  0
    9.6001   14.7456    4.4962 H   0  0  0  0  0  0  0  0  0  0  0  0
  2  1  1  0
  3  2  1  0
  4  3  2  0
  5  4  1  0
  5  1  2  0
  6  4  1  0
  7  5  1  0
  8  7  2  0
  9  7  1  0
 11 10  2  0
 12  1  1  0
 12 11  1  0
 13 11  1  0
 14 13  1  0
 15 14  1  0
 16 15  1  0
 17 16  1  0
 18 17  1  0
 18 13  1  0
 19 18  1  0
 20 19  2  0
 21 19  1  0
 22  3  1  0
 23 22  1  0
 24 23  2  0
 25 24  1  0
 26 25  2  0
 27 26  1  0
 28 27  2  0
 28 23  1  0
  6 29  1  0
  6 30  1  0
  6 31  1  0
  9 32  1  0
  9 33  1  0
 12 34  1  0
 13 35  1  6
 14 36  1  0
 14 37  1  0
 15 38  1  0
 15 39  1  0
 16 40  1  0
 16 41  1  0
 17 42  1  0
 17 43  1  0
 18 44  1  6
 22 45  1  0
 22 46  1  0
 24 47  1  0
 25 48  1  0
 26 49  1  0
 27 50  1  0
 28 51  1  0
M  CHG  1  21  -1
M  END
$$$$
=
     RDKit          3D

 28 29  0  0  0  0  0  0  0  0999 V2000
   19.5420   15.4060    3.3450 O   0  0  0  0  0  0  0  0  0  0  0  0
   19.7360   16.2790    4.4650 C   0  0  1  0  0  0  0  0  0  0  0  0
   21.2040   16.1680    4.9240 C   0  0  0  0  0  0  0  0  0  0  0  0
   21.7350   17.6000    4.7320 C   0  0  1  0  0  0  0  0  0  0  0  0
   21.0160   18.0330    3.4580 C   0  0  0  0  0  0  0  0  0  0  0  0
   19.6260   17.7600    4.0400 C   0  0  2  0  0  0  0  0  0  0  0  0
   19.6400   18.6370    5.3010 C   0  0  0  0  0  0  0  0  0  0  0  0
   21.0930   18.5190    5.7860 C   0  0  0  0  0  0  0  0  0  0  0  0
   18.7770   13.2480    3.1280 O   0  0  0  0  0  0  0  0  0  0  0  0
   18.6660   14.3870    3.5550 C   0  0  0  0  0  0  0  0  0  0  0  0
   17.5650   14.9030    4.3870 C   0  0  0  0  0  0  0  0  0  0  0  0
   16.2940   14.8870    3.9600 C   0  0  0  0  0  0  0  0  0  0  0  0
   15.1700   15.4230    4.8340 C   0  0  0  0  0  0  0  0  0  0  0  0
   14.2570   16.0120    4.1890 O   0  0  0  0  0  0  0  0  0  0  0  0
   15.2810   15.2180    6.0740 O   0  0  0  0  0  1  0  0  0  0  0  0
   18.9902   16.0012    5.2243 H   0  0  0  0  0  0  0  0  0  0  0  0
   21.2666   15.8610    5.9784 H   0  0  0  0  0  0  0  0  0  0  0  0
   21.7775   15.4140    4.3650 H   0  0  0  0  0  0  0  0  0  0  0  0
   22.8339   17.6439    4.7546 H   0  0  0  0  0  0  0  0  0  0  0  0
   21.1812   19.0901    3.2026 H   0  0  0  0  0  0  0  0  0  0  0  0
   21.2924   17.5511    2.5086 H   0  0  0  0  0  0  0  0  0  0  0  0
   18.7482   17.9462    3.4038 H   0  0  0  0  0  0  0  0  0  0  0  0
   19.3867   19.6800    5.0603 H   0  0  0  0  0  0  0  0  0  0  0  0
   18.9036   18.3238    6.0558 H   0  0  0  0  0  0  0  0  0  0  0  0
   21.5847   19.5028    5.8052 H   0  0  0  0  0  0  0  0  0  0  0  0
   21.1780   18.1292    6.8111 H   0  0  0  0  0  0  0  0  0  0  0  0
   17.7912   15.3114    5.3830 H   0  0  0  0  0  0  0  0  0  0  0  0
   16.0610   14.4810    2.9646 H   0  0  0  0  0  0  0  0  0  0  0  0
  2  1  1  0
  3  2  1  0
  4  3  1  0
  5  4  1  0
  6  2  1  0
  6  5  1  0
  7  6  1  0
  8  7  1  0
  8  4  1  0
 10  9  2  0
 10  1  1  0
 11 10  1  0
 12 11  2  0
 13 12  1  0
 14 13  2  0
 15 13  1  0
  2 16  1  1
  3 17  1  0
  3 18  1  0
  4 19  1  6
  5 20  1  0
  5 21  1  0
  6 22  1  6
  7 23  1  0
  7 24  1  0
  8 25  1  0
  8 26  1  0
 11 27  1  0
 12 28  1  0
M  CHG  1  15  -1
M  END
$$$$
=
     RDKit          3D

 18 18  0  0  0  0  0  0  0  0999 V2000
   17.2760   13.4080    3.2970 C   0  0  0  0  0  0  0  0  0  0  0  0
   16.6660   12.2500    2.9890 N   0  0  0  0  0  0  0  0  0  0  0  0
   15.3100   12.2270    3.0940 C   0  0  0  0  0  0  0  0  0  0  0  0
   14.5120   13.3000    3.4920 C   0  0  0  0  0  0  0  0  0  0  0  0
   15.1800   14.4950    3.8220 C   0  0  0  0  0  0  0  0  0  0  0  0
   16.5780   14.5350    3.7110 C   0  0  0  0  0  0  0  0  0  0  0  0
   14.4550   15.7290    4.2780 C   0  0  0  0  0  0  0  0  0  0  0  0
   19.6000   15.6740    3.3250 N   0  0  0  0  0  2  0  0  0  0  0  0
   19.1190   14.6390    3.2690 N   0  0  0  0  0  4  0  0  0  0  0  0
   18.6720   13.4810    3.2010 N   0  0  0  0  0  0  0  0  0  0  0  0
   13.0140   13.0960    3.5380 C   0  0  0  0  0  0  0  0  0  0  0  0
   12.4670   13.1600    4.6830 O   0  0  0  0  0  0  0  0  0  0  0  0
   12.4060   12.8650    2.4490 O   0  0  0  0  0  1  0  0  0  0  0  0
   14.8005   11.2846    2.8445 H   0  0  0  0  0  0  0  0  0  0  0  0
   17.1219   15.4602    3.9522 H   0  0  0  0  0  0  0  0  0  0  0  0
   14.4375   15.7588    5.3775 H   0  0  0  0  0  0  0  0  0  0  0  0
   14.9727   16.6209    3.8952 H   0  0  0  0  0  0  0  0  0  0  0  0
   13.4239   15.7110    3.8952 H   0  0  0  0  0  0  0  0  0  0  0  0
  2  1  2  0
  3  2  1  0
  4  3  2  0
  5  4  1  0
  6  5  2  0
  6  1  1  0
  7  5  1  0
  9  8  2  0
 10  9  2  0
 10  1  1  0
 11  4  1  0
 12 11  2  0
 13 11  1  0
  3 14  1  0
  6 15  1  0
  7 16  1  0
  7 17  1  0
  7 18  1  0
M  CHG  3   8  -1   9   1  13  -1
M  END
$$$$
=
     RDKit          3D

 34 34  0  0  0  0  0  0  0  0999 V2000
   17.5210   13.4340    3.5760 O   0  0  0  0  0  0  0  0  0  0  0  0
   17.3160   14.6110    3.8370 C   0  0  0  0  0  0  0  0  0  0  0  0
   18.2110   15.4270    4.4770 N   0  0  0  0  0  0  0  0  0  0  0  0
   19.5320   14.9760    4.8970 C   0  0  0  0  0  0  0  0  0  0  0  0
   20.2680   16.2570    5.2560 C   0  0  1  0  0  0  0  0  0  0  0  0
   19.1450   17.1790    5.7350 C   0  0  2  0  0  0  0  0  0  0  0  0
   17.9980   16.8260    4.8020 C   0  0  0  0  0  0  0  0  0  0  0  0
   19.4760   18.6470    5.6650 C   0  0  0  0  0  0  0  0  0  0  0  0
   20.6900   18.9090    6.2080 F   0  0  0  0  0  0  0  0  0  0  0  0
   19.5490   19.0420    4.3650 F   0  0  0  0  0  0  0  0  0  0  0  0
   18.5840   19.4500    6.2690 F   0  0  0  0  0  0  0  0  0  0  0  0
   21.3210   15.8980    6.2860 C   0  0  0  0  0  0  0  0  0  0  0  0
   22.3520   16.6240    6.2600 O   0  0  0  0  0  0  0  0  0  0  0  0
   21.0390   14.9250    7.0350 O   0  0  0  0  0  1  0  0  0  0  0  0
   16.1740   15.2820    3.5260 O   0  0  0  0  0  0  0  0  0  0  0  0
   14.9570   15.0710    4.2830 C   0  0  0  0  0  0  0  0  0  0  0  0
   14.1180   16.3320    4.0250 C   0  0  0  0  0  0  0  0  0  0  0  0
   15.2410   14.9710    5.7840 C   0  0  0  0  0  0  0  0  0  0  0  0
   14.1800   13.8550    3.7630 C   0  0  0  0  0  0  0  0  0  0  0  0
   19.4577   14.3112    5.7702 H   0  0  0  0  0  0  0  0  0  0  0  0
   20.0480   14.3991    4.1154 H   0  0  0  0  0  0  0  0  0  0  0  0
   20.8239   16.7631    4.4530 H   0  0  0  0  0  0  0  0  0  0  0  0
   18.9266   17.0260    6.8022 H   0  0  0  0  0  0  0  0  0  0  0  0
   18.0309   17.4455    3.8937 H   0  0  0  0  0  0  0  0  0  0  0  0
   17.0148   17.0035    5.2622 H   0  0  0  0  0  0  0  0  0  0  0  0
   13.8213   16.7779    4.9858 H   0  0  0  0  0  0  0  0  0  0  0  0
   14.7138   17.0580    3.4522 H   0  0  0  0  0  0  0  0  0  0  0  0
   13.2182   16.0629    3.4522 H   0  0  0  0  0  0  0  0  0  0  0  0
   14.3499   15.2848    6.3475 H   0  0  0  0  0  0  0  0  0  0  0  0
   15.4903   13.9310    6.0415 H   0  0  0  0  0  0  0  0  0  0  0  0
   16.0869   15.6254    6.0415 H   0  0  0  0  0  0  0  0  0  0  0  0
   13.8050   13.2681    4.6144 H   0  0  0  0  0  0  0  0  0  0  0  0
   13.3321   14.1961    3.1509 H   0  0  0  0  0  0  0  0  0  0  0  0
   14.8457   13.2289    3.1509 H   0  0  0  0  0  0  0  0  0  0  0  0
  2  1  2  0
  3  2  1  0
  4  3  1  0
  5  4  1  0
  6  5  1  0
  7  3  1  0
  7  6  1  0
  8  6  1  0
  9  8  1  0
 10  8  1  0
 11  8  1  0
 12  5  1  0
 13 12  2  0
 14 12  1  0
 15  2  1  0
 16 15  1  0
 17 16  1  0
 18 16  1  0
 19 16  1  0
  4 20  1  0
  4 21  1  0
  5 22  1  6
  6 23  1  1
  7 24  1  0
  7 25  1  0
 17 26  1  0
 17 27  1  0
 17 28  1  0
 18 29  1  0
 18 30  1  0
 18 31  1  0
 19 32  1  0
 19 33  1  0
 19 34  1  0
M  CHG  1  14  -1
M  END
$$$$
=
     RDKit          3D

 20 20  0  0  0  0  0  0  0  0999 V2000
   19.3630   15.5450    3.8760 C   0  0  0  0  0  0  0  0  0  0  0  0
   19.4880   16.3070    2.7480 N   0  0  0  0  0  0  0  0  0  0  0  0
   20.0450   17.5290    2.8750 C   0  0  0  0  0  0  0  0  0  0  0  0
   20.4920   18.0530    4.0710 C   0  0  0  0  0  0  0  0  0  0  0  0
   20.3660   17.2650    5.2060 C   0  0  0  0  0  0  0  0  0  0  0  0
   19.8030   15.9790    5.1220 C   0  0  0  0  0  0  0  0  0  0  0  0
   19.7170   15.1580    6.3650 C   0  0  0  0  0  0  0  0  0  0  0  0
   20.8020   14.7100    6.8500 O   0  0  0  0  0  0  0  0  0  0  0  0
   18.5610   15.0420    6.8830 O   0  0  0  0  0  1  0  0  0  0  0  0
   18.5170   14.0030    3.5820 S   0  0  0  0  0  0  0  0  0  0  0  0
   15.8510   13.5990    3.1160 C   0  0  0  0  0  0  0  0  0  0  0  0
   16.8180   14.6410    3.6530 C   0  0  0  0  0  0  0  0  0  0  0  0
   20.1493   18.1455    1.9700 H   0  0  0  0  0  0  0  0  0  0  0  0
   20.9325   19.0596    4.1226 H   0  0  0  0  0  0  0  0  0  0  0  0
   20.7088   17.6488    6.1782 H   0  0  0  0  0  0  0  0  0  0  0  0
   15.3684   13.0789    3.9566 H   0  0  0  0  0  0  0  0  0  0  0  0
   15.0840   14.0928    2.5013 H   0  0  0  0  0  0  0  0  0  0  0  0
   16.4007   12.8709    2.5013 H   0  0  0  0  0  0  0  0  0  0  0  0
   16.7456   15.5540    3.0438 H   0  0  0  0  0  0  0  0  0  0  0  0
   16.5605   14.8695    4.6977 H   0  0  0  0  0  0  0  0  0  0  0  0
  2  1  2  0
  3  2  1  0
  4  3  2  0
  5  4  1  0
  6  1  1  0
  6  5  2  0
  7  6  1  0
  8  7  2  0
  9  7  1  0
 10  1  1  0
 12 11  1  0
 12 10  1  0
  3 13  1  0
  4 14  1  0
  5 15  1  0
 11 16  1  0
 11 17  1  0
 11 18  1  0
 12 19  1  0
 12 20  1  0
M  CHG  1   9  -1
M  END
$$$$
=
     RDKit          3D

 35 36  0  0  0  0  0  0  0  0999 V2000
   18.6130   14.4410    4.2130 S   0  0  0  0  0  6  0  0  0  0  0  0
   18.9390   13.7910    5.4740 O   0  0  0  0  0  0  0  0  0  0  0  0
   19.0780   13.8360    2.9800 O   0  0  0  0  0  0  0  0  0  0  0  0
   16.8400   14.5390    4.1550 C   0  0  0  0  0  0  0  0  0  0  0  0
   16.1130   13.6070    3.4150 C   0  0  0  0  0  0  0  0  0  0  0  0
   14.7180   13.6430    3.4360 C   0  0  0  0  0  0  0  0  0  0  0  0
   14.0400   14.5810    4.2260 C   0  0  0  0  0  0  0  0  0  0  0  0
   14.7800   15.5010    4.9800 C   0  0  0  0  0  0  0  0  0  0  0  0
   16.1760   15.4740    4.9560 C   0  0  0  0  0  0  0  0  0  0  0  0
   12.5430   14.6490    4.1990 C   0  0  0  0  0  0  0  0  0  0  0  0
   19.8650   16.4640    5.5890 C   0  0  1  0  0  0  0  0  0  0  0  0
   20.2510   17.9580    5.5020 C   0  0  0  0  0  0  0  0  0  0  0  0
   19.4120   18.7120    4.4760 C   0  0  0  0  0  0  0  0  0  0  0  0
   19.5530   18.1010    3.0810 C   0  0  0  0  0  0  0  0  0  0  0  0
   19.8390   16.5980    3.1070 C   0  0  0  0  0  0  0  0  0  0  0  0
   19.2040   16.0220    4.3030 N   0  0  0  0  0  0  0  0  0  0  0  0
   21.2470   15.4720    7.2570 O   0  0  0  0  0  1  0  0  0  0  0  0
   21.1490   15.7130    6.0190 C   0  0  0  0  0  0  0  0  0  0  0  0
   21.9610   15.4290    5.0890 O   0  0  0  0  0  0  0  0  0  0  0  0
   16.6369   12.8466    2.8172 H   0  0  0  0  0  0  0  0  0  0  0  0
   14.1453   12.9283    2.8267 H   0  0  0  0  0  0  0  0  0  0  0  0
   14.2582   16.2492    5.5947 H   0  0  0  0  0  0  0  0  0  0  0  0
   16.7519   16.1861    5.5653 H   0  0  0  0  0  0  0  0  0  0  0  0
   12.1581   14.6665    5.2293 H   0  0  0  0  0  0  0  0  0  0  0  0
   12.2269   15.5624    3.6739 H   0  0  0  0  0  0  0  0  0  0  0  0
   12.1453   13.7680    3.6739 H   0  0  0  0  0  0  0  0  0  0  0  0
   19.0963   16.2373    6.3425 H   0  0  0  0  0  0  0  0  0  0  0  0
   20.1026   18.4201    6.4891 H   0  0  0  0  0  0  0  0  0  0  0  0
   21.3030   18.0166    5.1860 H   0  0  0  0  0  0  0  0  0  0  0  0
   18.3553   18.6719    4.7790 H   0  0  0  0  0  0  0  0  0  0  0  0
   19.7677   19.7521    4.4355 H   0  0  0  0  0  0  0  0  0  0  0  0
   18.6162   18.2691    2.5295 H   0  0  0  0  0  0  0  0  0  0  0  0
   20.4115   18.5886    2.5959 H   0  0  0  0  0  0  0  0  0  0  0  0
   19.4253   16.1260    2.2036 H   0  0  0  0  0  0  0  0  0  0  0  0
   20.9244   16.4215    3.1348 H   0  0  0  0  0  0  0  0  0  0  0  0
  2  1  2  0
  3  1  2  0
  4  1  1  0
  5  4  2  0
  6  5  1  0
  7  6  2  0
  8  7  1  0
  9  8  2  0
  9  4  1  0
 10  7  1  0
 12 11  1  0
 13 12  1  0
 14 13  1  0
 15 14  1  0
 16  1  1  0
 16 15  1  0
 16 11  1  0
 18 17  1  0
 18 11  1  0
 19 18  2  0
  5 20  1  0
  6 21  1  0
  8 22  1  0
  9 23  1  0
 10 24  1  0
 10 25  1  0
 10 26  1  0
 11 27  1  1
 12 28  1  0
 12 29  1  0
 13 30  1  0
 13 31  1  0
 14 32  1  0
 14 33  1  0
 15 34  1  0
 15 35  1  0
M  CHG  1  17  -1
M  END
$$$$
=
     RDKit          3D

 25 27  0  0  0  0  0  0  0  0999 V2000
   18.0860   14.3500    3.8100 C   0  0  0  0  0  0  0  0  0  0  0  0
   18.2510   13.0710    3.0730 C   0  0  0  0  0  0  0  0  0  0  0  0
   17.3060   12.2750    2.6750 N   0  0  0  0  0  0  0  0  0  0  0  0
   16.0350   12.6630    2.9750 C   0  0  0  0  0  0  0  0  0  0  0  0
   15.7740   13.8520    3.6760 N   0  0  0  0  0  0  0  0  0  0  0  0
   16.8180   14.6930    4.1220 C   0  0  0  0  0  0  0  0  0  0  0  0
   16.4950   15.9090    4.9420 C   0  0  0  0  0  0  0  0  0  0  0  0
   14.3890   13.9520    3.7800 C   0  0  0  0  0  0  0  0  0  0  0  0
   13.5080   14.9050    4.3210 C   0  0  0  0  0  0  0  0  0  0  0  0
   12.1320   14.6530    4.2420 C   0  0  0  0  0  0  0  0  0  0  0  0
   11.6450   13.4950    3.6420 C   0  0  0  0  0  0  0  0  0  0  0  0
   12.5270   12.5590    3.0970 C   0  0  0  0  0  0  0  0  0  0  0  0
   13.9090   12.7970    3.1650 C   0  0  0  0  0  0  0  0  0  0  0  0
   14.9220   12.0230    2.6830 N   0  0  0  0  0  0  0  0  0  0  0  0
   19.8460   14.8880    5.2880 O   0  0  0  0  0  1  0  0  0  0  0  0
   19.3660   15.1260    4.1450 C   0  0  0  0  0  0  0  0  0  0  0  0
   19.7970   15.8870    3.2340 O   0  0  0  0  0  0  0  0  0  0  0  0
   19.2820   12.7664    2.8401 H   0  0  0  0  0  0  0  0  0  0  0  0
   16.5615   15.6586    6.0111 H   0  0  0  0  0  0  0  0  0  0  0  0
   17.2115   16.7101    4.7078 H   0  0  0  0  0  0  0  0  0  0  0  0
   15.4754   16.2490    4.7078 H   0  0  0  0  0  0  0  0  0  0  0  0
   13.8885   15.8228    4.7931 H   0  0  0  0  0  0  0  0  0  0  0  0
   11.4241   15.3830    4.6614 H   0  0  0  0  0  0  0  0  0  0  0  0
   10.5605   13.3163    3.5969 H   0  0  0  0  0  0  0  0  0  0  0  0
   12.1430   11.6454    2.6197 H   0  0  0  0  0  0  0  0  0  0  0  0
  2  1  1  0
  3  2  2  0
  4  3  1  0
  5  4  1  0
  6  5  1  0
  6  1  2  0
  7  6  1  0
  8  5  1  0
  9  8  2  0
 10  9  1  0
 11 10  2  0
 12 11  1  0
 13 12  2  0
 13  8  1  0
 14 13  1  0
 14  4  2  0
 16 15  1  0
 16  1  1  0
 17 16  2  0
  2 18  1  0
  7 19  1  0
  7 20  1  0
  7 21  1  0
  9 22  1  0
 10 23  1  0
 11 24  1  0
 12 25  1  0
M  CHG  1  15  -1
M  END
$$$$
=
     RDKit          3D

 18 19  0  0  0  0  0  0  0  0999 V2000
   16.3760   14.1280    3.5850 C   0  0  0  0  0  0  0  0  0  0  0  0
   15.2860   14.7850    4.1950 C   0  0  0  0  0  0  0  0  0  0  0  0
   15.4650   15.9360    4.9930 C   0  0  0  0  0  0  0  0  0  0  0  0
   16.7410   16.4520    5.2140 C   0  0  0  0  0  0  0  0  0  0  0  0
   17.7910   15.7990    4.6000 C   0  0  0  0  0  0  0  0  0  0  0  0
   17.6290   14.6810    3.7880 C   0  0  0  0  0  0  0  0  0  0  0  0
   18.8510   14.2820    3.1930 N   0  0  0  0  0  0  0  0  0  0  0  0
   19.8210   14.9790    3.9530 N   0  0  0  0  0  0  0  0  0  0  0  0
   19.2330   16.0270    4.6530 C   0  0  0  0  0  0  0  0  0  0  0  0
   19.7890   16.9660    5.1940 O   0  0  0  0  0  0  0  0  0  0  0  0
   17.1970   12.0590    2.7790 O   0  0  0  0  0  1  0  0  0  0  0  0
   16.1970   12.8500    2.8130 C   0  0  0  0  0  0  0  0  0  0  0  0
   15.0610   12.6430    2.2850 O   0  0  0  0  0  0  0  0  0  0  0  0
   14.2704   14.3900    4.0448 H   0  0  0  0  0  0  0  0  0  0  0  0
   14.5911   16.4292    5.4436 H   0  0  0  0  0  0  0  0  0  0  0  0
   16.9034   17.3368    5.8471 H   0  0  0  0  0  0  0  0  0  0  0  0
   18.9981   13.6409    2.4004 H   0  0  0  0  0  0  0  0  0  0  0  0
   20.8231   14.7427    3.9833 H   0  0  0  0  0  0  0  0  0  0  0  0
  2  1  2  0
  3  2  1  0
  4  3  2  0
  5  4  1  0
  6  5  2  0
  6  1  1  0
  7  6  1  0
  8  7  1  0
  9  8  1  0
  9  5  1  0
 10  9  2  0
 12 11  1  0
 12  1  1  0
 13 12  2  0
  2 14  1  0
  3 15  1  0
  4 16  1  0
  7 17  1  0
  8 18  1  0
M  CHG  1  11  -1
M  END
$$$$
=
     RDKit          3D

 24 24  0  0  0  0  0  0  0  0999 V2000
   19.6710   17.1020    4.6900 C   0  0  2  0  0  0  0  0  0  0  0  0
   19.6450   18.4710    5.3730 C   0  0  0  0  0  0  0  0  0  0  0  0
   18.4140   16.3670    4.8800 N   0  0  0  0  0  0  0  0  0  0  0  0
   17.2650   16.9700    5.5170 C   0  0  0  0  0  0  0  0  0  0  0  0
   16.2530   15.8410    5.5390 C   0  0  0  0  0  0  0  0  0  0  0  0
   16.5560   15.0680    4.2660 C   0  0  0  0  0  0  0  0  0  0  0  0
   18.0280   15.3220    4.0460 C   0  0  0  0  0  0  0  0  0  0  0  0
   18.7170   14.7240    3.2320 O   0  0  0  0  0  0  0  0  0  0  0  0
   20.9340   16.2880    4.9780 C   0  0  0  0  0  0  0  0  0  0  0  0
   22.6040   17.0340    6.4500 O   0  0  0  0  0  1  0  0  0  0  0  0
   21.6000   16.2690    6.3520 C   0  0  0  0  0  0  0  0  0  0  0  0
   21.1040   15.5050    7.2230 O   0  0  0  0  0  0  0  0  0  0  0  0
   19.7381   17.2970    3.6095 H   0  0  0  0  0  0  0  0  0  0  0  0
   19.6476   18.3362    6.4647 H   0  0  0  0  0  0  0  0  0  0  0  0
   20.5324   19.0475    5.0726 H   0  0  0  0  0  0  0  0  0  0  0  0
   18.7364   19.0134    5.0726 H   0  0  0  0  0  0  0  0  0  0  0  0
   17.5080   17.3026    6.5370 H   0  0  0  0  0  0  0  0  0  0  0  0
   16.9014   17.8669    4.9941 H   0  0  0  0  0  0  0  0  0  0  0  0
   16.3913   15.2063    6.4267 H   0  0  0  0  0  0  0  0  0  0  0  0
   15.2137   16.1982    5.5862 H   0  0  0  0  0  0  0  0  0  0  0  0
   16.3574   13.9945    4.4004 H   0  0  0  0  0  0  0  0  0  0  0  0
   15.9337   15.3808    3.4146 H   0  0  0  0  0  0  0  0  0  0  0  0
   20.6839   15.2425    4.7448 H   0  0  0  0  0  0  0  0  0  0  0  0
   21.6852   16.8128    4.3695 H   0  0  0  0  0  0  0  0  0  0  0  0
  2  1  1  0
  3  1  1  0
  4  3  1  0
  5  4  1  0
  6  5  1  0
  7  6  1  0
  7  3  1  0
  8  7  2  0
  9  1  1  0
 11  9  1  0
 11 10  1  0
 12 11  2  0
  1 13  1  6
  2 14  1  0
  2 15  1  0
  2 16  1  0
  4 17  1  0
  4 18  1  0
  5 19  1  0
  5 20  1  0
  6 21  1  0
  6 22  1  0
  9 23  1  0
  9 24  1  0
M  CHG  1  10  -1
M  END
$$$$
=
     RDKit          3D

 39 41  0  0  0  0  0  0  0  0999 V2000
   18.8810   13.5260    4.6340 O   0  0  0  0  0  0  0  0  0  0  0  0
   18.6270   14.6140    4.1220 C   0  0  0  0  0  0  0  0  0  0  0  0
   17.4220   15.0010    3.5550 N   0  0  0  0  0  0  0  0  0  0  0  0
   16.2260   14.2510    3.4230 C   0  0  0  0  0  0  0  0  0  0  0  0
   16.1910   13.0410    2.7180 C   0  0  0  0  0  0  0  0  0  0  0  0
   15.0090   12.3140    2.5890 C   0  0  0  0  0  0  0  0  0  0  0  0
   13.8360   12.7850    3.1640 C   0  0  0  0  0  0  0  0  0  0  0  0
   13.8280   13.9920    3.8780 C   0  0  0  0  0  0  0  0  0  0  0  0
   15.0300   14.7330    4.0200 C   0  0  0  0  0  0  0  0  0  0  0  0
   15.0400   16.0360    4.7860 C   0  0  0  0  0  0  0  0  0  0  0  0
   12.5260   14.4560    4.4750 C   0  0  0  0  0  0  0  0  0  0  0  0
   19.6610   15.7360    4.0930 C   0  0  1  0  0  0  0  0  0  0  0  0
   19.1580   17.0300    3.4000 C   0  0  2  0  0  0  0  0  0  0  0  0
   20.3810   17.8890    3.1500 C   0  0  0  0  0  0  0  0  0  0  0  0
   20.8100   18.3120    4.3490 C   0  0  0  0  0  0  0  0  0  0  0  0
   19.8600   17.7690    5.3960 C   0  0  2  0  0  0  0  0  0  0  0  0
   20.0160   16.2440    5.5280 C   0  0  2  0  0  0  0  0  0  0  0  0
   18.5660   17.8240    4.5710 C   0  0  0  0  0  0  0  0  0  0  0  0
   21.3250   15.6480    6.0210 C   0  0  0  0  0  0  0  0  0  0  0  0
   22.1170   15.2190    5.1410 O   0  0  0  0  0  0  0  0  0  0  0  0
   21.4750   15.7180    7.2790 O   0  0  0  0  0  1  0  0  0  0  0  0
   17.3919   15.9599    3.1803 H   0  0  0  0  0  0  0  0  0  0  0  0
   17.1135   12.6576    2.2577 H   0  0  0  0  0  0  0  0  0  0  0  0
   15.0052   11.3660    2.0311 H   0  0  0  0  0  0  0  0  0  0  0  0
   12.9061   12.2070    3.0586 H   0  0  0  0  0  0  0  0  0  0  0  0
   15.0384   15.8265    5.8659 H   0  0  0  0  0  0  0  0  0  0  0  0
   15.9426   16.6080    4.5248 H   0  0  0  0  0  0  0  0  0  0  0  0
   14.1463   16.6218    4.5248 H   0  0  0  0  0  0  0  0  0  0  0  0
   12.5963   14.4310    5.5725 H   0  0  0  0  0  0  0  0  0  0  0  0
   12.3167   15.4840    4.1443 H   0  0  0  0  0  0  0  0  0  0  0  0
   11.7137   13.7920    4.1443 H   0  0  0  0  0  0  0  0  0  0  0  0
   20.5046   15.2745    3.5589 H   0  0  0  0  0  0  0  0  0  0  0  0
   18.5312   16.8192    2.5210 H   0  0  0  0  0  0  0  0  0  0  0  0
   20.8307   18.1212    2.1733 H   0  0  0  0  0  0  0  0  0  0  0  0
   21.6930   18.9403    4.5375 H   0  0  0  0  0  0  0  0  0  0  0  0
   19.9569   18.2762    6.3673 H   0  0  0  0  0  0  0  0  0  0  0  0
   19.3694   15.9111    6.3533 H   0  0  0  0  0  0  0  0  0  0  0  0
   17.7200   17.3155    5.0564 H   0  0  0  0  0  0  0  0  0  0  0  0
   18.1208   18.8081    4.3627 H   0  0  0  0  0  0  0  0  0  0  0  0
  2  1  2  0
  3  2  1  0
  4  3  1  0
  5  4  2  0
  6  5  1  0
  7  6  2  0
  8  7  1  0
  9  8  2  0
  9  4  1  0
 10  9  1  0
 11  8  1  0
 12  2  1  0
 13 12  1  0
 14 13  1  0
 15 14  2  0
 16 15  1  0
 17 12  1  0
 17 16  1  0
 18 16  1  0
 18 13  1  0
 19 17  1  0
 20 19  2  0
 21 19  1  0
  3 22  1  0
  5 23  1  0
  6 24  1  0
  7 25  1  0
 10 26  1  0
 10 27  1  0
 10 28  1  0
 11 29  1  0
 11 30  1  0
 11 31  1  0
 12 32  1  6
 13 33  1  6
 14 34  1  0
 15 35  1  0
 16 36  1  1
 17 37  1  1
 18 38  1  0
 18 39  1  0
M  CHG  1  21  -1
M  END
$$$$
=
     RDKit          3D

 14 13  0  0  0  0  0  0  0  0999 V2000
   19.4980   16.9020    5.3090 S   0  0  0  0  0  0  0  0  0  0  0  0
   21.3520   16.1670    5.9380 S   0  0  0  0  0  6  0  0  0  0  0  0
   21.8830   15.3080    4.8960 O   0  0  0  0  0  0  0  0  0  0  0  0
   21.2740   15.7560    7.3240 O   0  0  0  0  0  0  0  0  0  0  0  0
   22.3930   17.6030    5.9370 C   0  0  0  0  0  0  0  0  0  0  0  0
   19.9350   17.8940    3.8570 C   0  0  0  0  0  0  0  0  0  0  0  0
   19.4140   15.8270    2.8490 O   0  0  0  0  0  1  0  0  0  0  0  0
   19.5790   17.0590    2.6260 C   0  0  0  0  0  0  0  0  0  0  0  0
   19.5650   17.6870    1.5280 O   0  0  0  0  0  0  0  0  0  0  0  0
   22.6085   17.9003    6.9739 H   0  0  0  0  0  0  0  0  0  0  0  0
   23.3352   17.3725    5.4182 H   0  0  0  0  0  0  0  0  0  0  0  0
   21.8809   18.4268    5.4182 H   0  0  0  0  0  0  0  0  0  0  0  0
   19.3635   18.8339    3.8549 H   0  0  0  0  0  0  0  0  0  0  0  0
   21.0045   18.1512    3.8628 H   0  0  0  0  0  0  0  0  0  0  0  0
  2  1  1  0
  3  2  2  0
  4  2  2  0
  5  2  1  0
  6  1  1  0
  8  7  1  0
  8  6  1  0
  9  8  2  0
  5 10  1  0
  5 11  1  0
  5 12  1  0
  6 13  1  0
  6 14  1  0
M  CHG  1   7  -1
M  END
$$$$
=
     RDKit          3D

 19 20  0  0  0  0  0  0  0  0999 V2000
   18.7990   14.6220    4.3490 C   0  0  2  0  0  0  0  0  0  0  0  0
   18.7010   13.3750    3.5620 N   0  0  0  0  0  0  0  0  0  0  0  0
   17.4320   13.1820    3.0570 C   0  0  0  0  0  0  0  0  0  0  0  0
   17.0730   12.3470    2.2480 O   0  0  0  0  0  0  0  0  0  0  0  0
   16.5680   14.2000    3.6590 C   0  0  0  0  0  0  0  0  0  0  0  0
   17.3660   15.0630    4.4060 C   0  0  0  0  0  0  0  0  0  0  0  0
   16.7890   16.1330    5.0720 C   0  0  0  0  0  0  0  0  0  0  0  0
   15.4060   16.3200    4.9640 C   0  0  0  0  0  0  0  0  0  0  0  0
   14.6160   15.4410    4.2000 C   0  0  0  0  0  0  0  0  0  0  0  0
   15.2000   14.3640    3.5320 C   0  0  0  0  0  0  0  0  0  0  0  0
   19.4600   16.1160    2.5930 O   0  0  0  0  0  1  0  0  0  0  0  0
   19.7580   15.6900    3.7490 C   0  0  0  0  0  0  0  0  0  0  0  0
   20.7020   16.0540    4.5160 O   0  0  0  0  0  0  0  0  0  0  0  0
   19.2542   14.4684    5.3385 H   0  0  0  0  0  0  0  0  0  0  0  0
   19.4869   12.7270    3.4088 H   0  0  0  0  0  0  0  0  0  0  0  0
   17.4042   16.8198    5.6719 H   0  0  0  0  0  0  0  0  0  0  0  0
   14.9304   17.1652    5.4831 H   0  0  0  0  0  0  0  0  0  0  0  0
   13.5305   15.6041    4.1289 H   0  0  0  0  0  0  0  0  0  0  0  0
   14.5957   13.6717    2.9274 H   0  0  0  0  0  0  0  0  0  0  0  0
  2  1  1  0
  3  2  1  0
  4  3  2  0
  5  3  1  0
  6  5  2  0
  6  1  1  0
  7  6  1  0
  8  7  2  0
  9  8  1  0
 10  9  2  0
 10  5  1  0
 12 11  1  0
 12  1  1  0
 13 12  2  0
  1 14  1  1
  2 15  1  0
  7 16  1  0
  8 17  1  0
  9 18  1  0
 10 19  1  0
M  CHG  1  11  -1
M  END
$$$$
=
     RDKit          3D

 36 38  0  0  0  0  0  0  0  0999 V2000
   28.1660   29.0250   16.1710 C   0  0  1  0  0  0  0  0  0  0  0  0
   29.6600   29.2440   15.9540 C   0  0  0  0  0  0  0  0  0  0  0  0
   30.4820   27.9550   15.9860 C   0  0  0  0  0  0  0  0  0  0  0  0
   29.6700   26.7030   15.6640 C   0  0  0  0  0  0  0  0  0  0  0  0
   28.6130   27.0370   14.7120 N   0  0  0  0  0  0  0  0  0  0  0  0
   27.5780   27.9380   15.2640 C   0  0  0  0  0  0  0  0  0  0  0  0
   28.2280   26.1170   13.7950 C   0  0  0  0  0  0  0  0  0  0  0  0
   27.0870   26.1340   13.1010 N   0  0  0  0  0  0  0  0  0  0  0  0
   27.1760   25.0270   12.3450 N   0  0  0  0  0  0  0  0  0  0  0  0
   28.3960   24.3900   12.5780 C   0  0  0  0  0  0  0  0  0  0  0  0
   29.0590   25.0740   13.4810 N   0  0  0  0  0  0  0  0  0  0  0  0
   28.7510   23.2410   11.9250 N   0  0  0  0  0  0  0  0  0  0  0  0
   27.8850   22.7670   11.0800 C   0  0  0  0  0  0  0  0  0  0  0  0
   26.5520   23.3790   10.7720 C   0  0  0  0  0  0  0  0  0  0  0  0
   26.2490   24.5100   11.4300 C   0  0  0  0  0  0  0  0  0  0  0  0
   24.9620   25.2510   11.2430 C   0  0  0  0  0  0  0  0  0  0  0  0
   28.2440   21.5000   10.3450 C   0  0  0  0  0  0  0  0  0  0  0  0
   28.5580   28.9560   18.5180 O   0  0  0  0  0  1  0  0  0  0  0  0
   27.7230   28.7070   17.6050 C   0  0  0  0  0  0  0  0  0  0  0  0
   26.5470   28.2510   17.7070 O   0  0  0  0  0  0  0  0  0  0  0  0
   27.7712   30.0187   15.9128 H   0  0  0  0  0  0  0  0  0  0  0  0
   29.8020   29.7220   14.9735 H   0  0  0  0  0  0  0  0  0  0  0  0
   30.0162   29.8727   16.7834 H   0  0  0  0  0  0  0  0  0  0  0  0
   31.2937   28.0420   15.2487 H   0  0  0  0  0  0  0  0  0  0  0  0
   30.8594   27.8390   17.0127 H   0  0  0  0  0  0  0  0  0  0  0  0
   30.3307   25.9407   15.2253 H   0  0  0  0  0  0  0  0  0  0  0  0
   29.2197   26.3114   16.5880 H   0  0  0  0  0  0  0  0  0  0  0  0
   27.0512   28.4229   14.4289 H   0  0  0  0  0  0  0  0  0  0  0  0
   26.8959   27.3278   15.8742 H   0  0  0  0  0  0  0  0  0  0  0  0
   25.8597   22.9266   10.0467 H   0  0  0  0  0  0  0  0  0  0  0  0
   24.5344   25.4972   12.2262 H   0  0  0  0  0  0  0  0  0  0  0  0
   25.1510   26.1785   10.6827 H   0  0  0  0  0  0  0  0  0  0  0  0
   24.2547   24.6218   10.6827 H   0  0  0  0  0  0  0  0  0  0  0  0
   28.4691   20.7057   11.0719 H   0  0  0  0  0  0  0  0  0  0  0  0
   27.3983   21.1903    9.7135 H   0  0  0  0  0  0  0  0  0  0  0  0
   29.1265   21.6799    9.7135 H   0  0  0  0  0  0  0  0  0  0  0  0
  2  1  1  0
  3  2  1  0
  4  3  1  0
  5  4  1  0
  6  5  1  0
  6  1  1  0
  7  5  1  0
  8  7  2  0
  9  8  1  0
 10  9  1  0
 11 10  2  0
 11  7  1  0
 12 10  1  0
 13 12  2  0
 14 13  1  0
 15 14  2  0
 15  9  1  0
 16 15  1  0
 17 13  1  0
 19  1  1  0
 19 18  1  0
 20 19  2  0
  1 21  1  6
  2 22  1  0
  2 23  1  0
  3 24  1  0
  3 25  1  0
  4 26  1  0
  4 27  1  0
  6 28  1  0
  6 29  1  0
 14 30  1  0
 16 31  1  0
 16 32  1  0
 16 33  1  0
 17 34  1  0
 17 35  1  0
 17 36  1  0
M  CHG  1  18  -1
M  END
$$$$
=
     RDKit          3D

 25 26  0  0  0  0  0  0  0  0999 V2000
   17.2770   15.0030    3.8300 C   0  0  0  0  0  0  0  0  0  0  0  0
   16.8360   16.1230    4.5530 C   0  0  0  0  0  0  0  0  0  0  0  0
   15.5250   16.1890    5.0240 C   0  0  0  0  0  0  0  0  0  0  0  0
   14.6540   15.1280    4.7940 C   0  0  0  0  0  0  0  0  0  0  0  0
   15.0970   14.0080    4.0900 C   0  0  0  0  0  0  0  0  0  0  0  0
   16.4130   13.9260    3.5910 C   0  0  0  0  0  0  0  0  0  0  0  0
   16.8190   12.6990    2.8180 C   0  0  0  0  0  0  0  0  0  0  0  0
   17.8580   12.0890    3.2310 O   0  0  0  0  0  0  0  0  0  0  0  0
   16.0750   12.3280    1.8580 O   0  0  0  0  0  1  0  0  0  0  0  0
   18.6050   14.9280    3.4590 O   0  0  0  0  0  0  0  0  0  0  0  0
   22.1540   17.6650    4.9740 F   0  0  0  0  0  0  0  0  0  0  0  0
   21.3000   16.6560    5.1950 C   0  0  0  0  0  0  0  0  0  0  0  0
   21.3450   15.9800    6.4120 C   0  0  0  0  0  0  0  0  0  0  0  0
   20.4510   14.9360    6.6530 C   0  0  0  0  0  0  0  0  0  0  0  0
   19.5310   14.5710    5.6690 C   0  0  0  0  0  0  0  0  0  0  0  0
   19.5160   15.2410    4.4430 C   0  0  0  0  0  0  0  0  0  0  0  0
   20.3880   16.3030    4.2080 C   0  0  0  0  0  0  0  0  0  0  0  0
   17.5294   16.9541    4.7492 H   0  0  0  0  0  0  0  0  0  0  0  0
   15.1805   17.0764    5.5753 H   0  0  0  0  0  0  0  0  0  0  0  0
   13.6198   15.1724    5.1661 H   0  0  0  0  0  0  0  0  0  0  0  0
   14.4043   13.1705    3.9205 H   0  0  0  0  0  0  0  0  0  0  0  0
   22.0804   16.2672    7.1780 H   0  0  0  0  0  0  0  0  0  0  0  0
   20.4713   14.4027    7.6149 H   0  0  0  0  0  0  0  0  0  0  0  0
   18.8175   13.7556    5.8587 H   0  0  0  0  0  0  0  0  0  0  0  0
   20.3546   16.8530    3.2559 H   0  0  0  0  0  0  0  0  0  0  0  0
  2  1  2  0
  3  2  1  0
  4  3  2  0
  5  4  1  0
  6  5  2  0
  6  1  1  0
  7  6  1  0
  8  7  2  0
  9  7  1  0
 10  1  1  0
 12 11  1  0
 13 12  2  0
 14 13  1  0
 15 14  2  0
 16 10  1  0
 16 15  1  0
 17 16  2  0
 17 12  1  0
  2 18  1  0
  3 19  1  0
  4 20  1  0
  5 21  1  0
 13 22  1  0
 14 23  1  0
 15 24  1  0
 17 25  1  0
M  CHG  1   9  -1
M  END
$$$$
=
     RDKit          3D

 32 32  0  0  0  0  0  0  0  0999 V2000
   16.0940   14.7040    4.2650 C   0  0  0  0  0  0  0  0  0  0  0  0
   15.6600   16.0010    4.9570 C   0  0  0  0  0  0  0  0  0  0  0  0
   16.7490   16.5690    5.8770 C   0  0  0  0  0  0  0  0  0  0  0  0
   18.1900   16.4520    5.3210 C   0  0  0  0  0  0  0  0  0  0  0  0
   18.1630   16.1880    3.8060 C   0  0  0  0  0  0  0  0  0  0  0  0
   17.3570   14.9490    3.4080 C   0  0  0  0  0  0  0  0  0  0  0  0
   18.9530   15.3250    6.0470 C   0  0  0  0  0  0  0  0  0  0  0  0
   18.9470   17.7680    5.5870 C   0  0  0  0  0  0  0  0  0  0  0  0
   13.5800   14.2080    4.0340 C   0  0  0  0  0  0  0  0  0  0  0  0
   14.9690   14.0770    3.4090 C   0  0  2  0  0  0  0  0  0  0  0  0
   15.1550   12.5580    3.2060 C   0  0  0  0  0  0  0  0  0  0  0  0
   14.4560   11.8370    3.9760 O   0  0  0  0  0  0  0  0  0  0  0  0
   15.9760   12.2140    2.3110 O   0  0  0  0  0  1  0  0  0  0  0  0
   16.3281   13.9794    5.0588 H   0  0  0  0  0  0  0  0  0  0  0  0
   15.4232   16.7497    4.1867 H   0  0  0  0  0  0  0  0  0  0  0  0
   14.7832   15.7703    5.5798 H   0  0  0  0  0  0  0  0  0  0  0  0
   16.5327   17.6340    6.0475 H   0  0  0  0  0  0  0  0  0  0  0  0
   16.7215   15.9695    6.7989 H   0  0  0  0  0  0  0  0  0  0  0  0
   17.7201   17.0639    3.3094 H   0  0  0  0  0  0  0  0  0  0  0  0
   19.2023   16.0073    3.4942 H   0  0  0  0  0  0  0  0  0  0  0  0
   18.0109   14.0693    3.5004 H   0  0  0  0  0  0  0  0  0  0  0  0
   17.0087   15.1195    2.3786 H   0  0  0  0  0  0  0  0  0  0  0  0
   18.8607   15.4613    7.1346 H   0  0  0  0  0  0  0  0  0  0  0  0
   18.5275   14.3515    5.7621 H   0  0  0  0  0  0  0  0  0  0  0  0
   20.0149   15.3585    5.7621 H   0  0  0  0  0  0  0  0  0  0  0  0
   19.0378   17.9259    6.6718 H   0  0  0  0  0  0  0  0  0  0  0  0
   19.9502   17.7108    5.1395 H   0  0  0  0  0  0  0  0  0  0  0  0
   18.3932   18.6065    5.1395 H   0  0  0  0  0  0  0  0  0  0  0  0
   13.6690   14.1996    5.1304 H   0  0  0  0  0  0  0  0  0  0  0  0
   13.1201   15.1535    3.7107 H   0  0  0  0  0  0  0  0  0  0  0  0
   12.9515   13.3651    3.7107 H   0  0  0  0  0  0  0  0  0  0  0  0
   15.0379   14.6371    2.4648 H   0  0  0  0  0  0  0  0  0  0  0  0
  2  1  1  0
  3  2  1  0
  4  3  1  0
  5  4  1  0
  6  1  1  0
  6  5  1  0
  7  4  1  0
  8  4  1  0
 10  9  1  0
 10  1  1  0
 11 10  1  0
 12 11  2  0
 13 11  1  0
  1 14  1  0
  2 15  1  0
  2 16  1  0
  3 17  1  0
  3 18  1  0
  5 19  1  0
  5 20  1  0
  6 21  1  0
  6 22  1  0
  7 23  1  0
  7 24  1  0
  7 25  1  0
  8 26  1  0
  8 27  1  0
  8 28  1  0
  9 29  1  0
  9 30  1  0
  9 31  1  0
 10 32  1  6
M  CHG  1  13  -1
M  END
$$$$
=
     RDKit          3D

 40 40  0  0  0  0  0  0  0  0999 V2000
   27.9880   26.5400   14.6250 C   0  0  2  0  0  0  0  0  0  0  0  0
   27.9720   27.4750   13.4090 C   0  0  0  0  0  0  0  0  0  0  0  0
   28.4700   28.8400   13.8970 C   0  0  0  0  0  0  0  0  0  0  0  0
   28.7240   28.7040   15.4140 C   0  0  1  0  0  0  0  0  0  0  0  0
   29.0310   27.1750   15.5890 C   0  0  0  0  0  0  0  0  0  0  0  0
   28.8610   26.6920   17.0420 C   0  0  0  0  0  0  0  0  0  0  0  0
   30.4760   26.8230   15.1550 C   0  0  0  0  0  0  0  0  0  0  0  0
   29.8570   29.6470   15.8420 C   0  0  0  0  0  0  0  0  0  0  0  0
   28.6010   24.9080   12.9350 N   0  0  0  0  0  0  0  0  0  0  0  0
   28.2300   25.0790   14.2530 C   0  0  0  0  0  0  0  0  0  0  0  0
   28.1130   24.1370   15.0310 O   0  0  0  0  0  0  0  0  0  0  0  0
   28.9490   23.6110   12.3980 C   0  0  0  0  0  0  0  0  0  0  0  0
   28.2280   23.2950   11.0860 C   0  0  0  0  0  0  0  0  0  0  0  0
   25.8750   23.2730   11.0410 C   0  0  0  0  0  0  0  0  0  0  0  0
   27.0390   24.0880   10.9980 O   0  0  0  0  0  0  0  0  0  0  0  0
   27.4380   29.1270   16.2130 C   0  0  0  0  0  0  0  0  0  0  0  0
   27.5980   29.3430   17.4490 O   0  0  0  0  0  0  0  0  0  0  0  0
   26.3810   29.2540   15.5290 O   0  0  0  0  0  1  0  0  0  0  0  0
   27.0099   26.4673   15.1230 H   0  0  0  0  0  0  0  0  0  0  0  0
   28.6375   27.0872   12.6237 H   0  0  0  0  0  0  0  0  0  0  0  0
   26.9612   27.5519   12.9821 H   0  0  0  0  0  0  0  0  0  0  0  0
   29.4022   29.1105   13.3794 H   0  0  0  0  0  0  0  0  0  0  0  0
   27.7312   29.6279   13.6889 H   0  0  0  0  0  0  0  0  0  0  0  0
   29.1453   27.4997   17.7325 H   0  0  0  0  0  0  0  0  0  0  0  0
   27.8110   26.4139   17.2155 H   0  0  0  0  0  0  0  0  0  0  0  0
   29.5054   25.8175   17.2155 H   0  0  0  0  0  0  0  0  0  0  0  0
   31.1002   26.6709   16.0479 H   0  0  0  0  0  0  0  0  0  0  0  0
   30.4643   25.9014   14.5545 H   0  0  0  0  0  0  0  0  0  0  0  0
   30.8894   27.6467   14.5545 H   0  0  0  0  0  0  0  0  0  0  0  0
   29.9054   29.6873   16.9402 H   0  0  0  0  0  0  0  0  0  0  0  0
   30.8133   29.2744   15.4463 H   0  0  0  0  0  0  0  0  0  0  0  0
   29.6642   30.6551   15.4463 H   0  0  0  0  0  0  0  0  0  0  0  0
   28.6310   25.7295   12.3144 H   0  0  0  0  0  0  0  0  0  0  0  0
   30.0337   23.5860   12.2169 H   0  0  0  0  0  0  0  0  0  0  0  0
   28.6386   22.8554   13.1347 H   0  0  0  0  0  0  0  0  0  0  0  0
   28.8888   23.5278   10.2380 H   0  0  0  0  0  0  0  0  0  0  0  0
   27.9627   22.2278   11.0584 H   0  0  0  0  0  0  0  0  0  0  0  0
   25.6005   23.0808   12.0887 H   0  0  0  0  0  0  0  0  0  0  0  0
   25.0468   23.7895   10.5338 H   0  0  0  0  0  0  0  0  0  0  0  0
   26.0771   22.3181   10.5338 H   0  0  0  0  0  0  0  0  0  0  0  0
  2  1  1  0
  3  2  1  0
  4  3  1  0
  5  1  1  0
  5  4  1  0
  6  5  1  0
  7  5  1  0
  8  4  1  0
 10  9  1  0
 10  1  1  0
 11 10  2  0
 12  9  1  0
 13 12  1  0
 15 14  1  0
 15 13  1  0
  4 16  1  1
 17 16  2  0
 18 16  1  0
  1 19  1  1
  2 20  1  0
  2 21  1  0
  3 22  1  0
  3 23  1  0
  6 24  1  0
  6 25  1  0
  6 26  1  0
  7 27  1  0
  7 28  1  0
  7 29  1  0
  8 30  1  0
  8 31  1  0
  8 32  1  0
  9 33  1  0
 12 34  1  0
 12 35  1  0
 13 36  1  0
 13 37  1  0
 14 38  1  0
 14 39  1  0
 14 40  1  0
M  CHG  1  18  -1
M  END
$$$$
=
     RDKit          3D

 23 24  0  0  0  0  0  0  0  0999 V2000
   18.1700   15.6300    4.5910 C   0  0  0  0  0  0  0  0  0  0  0  0
   18.8250   16.1730    3.5220 O   0  0  0  0  0  0  0  0  0  0  0  0
   20.1080   16.5440    3.8890 N   0  0  0  0  0  0  0  0  0  0  0  0
   20.2160   16.2190    5.1880 C   0  0  0  0  0  0  0  0  0  0  0  0
   19.0190   15.6400    5.6720 C   0  0  0  0  0  0  0  0  0  0  0  0
   14.9820   12.4120    2.4700 C   0  0  0  0  0  0  0  0  0  0  0  0
   15.2280   13.6050    3.3450 C   0  0  0  0  0  0  0  0  0  0  0  0
   14.1590   14.3170    3.8970 C   0  0  0  0  0  0  0  0  0  0  0  0
   14.3960   15.4420    4.6830 C   0  0  0  0  0  0  0  0  0  0  0  0
   15.7060   15.8720    4.9160 C   0  0  0  0  0  0  0  0  0  0  0  0
   16.7980   15.1880    4.3630 C   0  0  0  0  0  0  0  0  0  0  0  0
   16.5400   14.0550    3.5730 C   0  0  0  0  0  0  0  0  0  0  0  0
   21.4950   16.4280    6.1200 C   0  0  0  0  0  0  0  0  0  0  0  0
   22.4100   17.2110    5.7150 O   0  0  0  0  0  0  0  0  0  0  0  0
   21.4910   15.7790    7.2170 O   0  0  0  0  0  1  0  0  0  0  0  0
   18.8131   15.2775    6.6899 H   0  0  0  0  0  0  0  0  0  0  0  0
   14.7997   11.5278    3.0984 H   0  0  0  0  0  0  0  0  0  0  0  0
   14.1033   12.5980    1.8349 H   0  0  0  0  0  0  0  0  0  0  0  0
   15.8626   12.2352    1.8349 H   0  0  0  0  0  0  0  0  0  0  0  0
   13.1264   13.9873    3.7097 H   0  0  0  0  0  0  0  0  0  0  0  0
   13.5511   15.9933    5.1213 H   0  0  0  0  0  0  0  0  0  0  0  0
   15.8823   16.7592    5.5419 H   0  0  0  0  0  0  0  0  0  0  0  0
   17.3824   13.5087    3.1236 H   0  0  0  0  0  0  0  0  0  0  0  0
  2  1  1  0
  3  2  1  0
  4  3  2  0
  5  4  1  0
  5  1  2  0
  7  6  1  0
  8  7  2  0
  9  8  1  0
 10  9  2  0
 11 10  1  0
 11  1  1  0
 12  7  1  0
 12 11  2  0
 13  4  1  0
 14 13  2  0
 15 13  1  0
  5 16  1  0
  6 17  1  0
  6 18  1  0
  6 19  1  0
  8 20  1  0
  9 21  1  0
 10 22  1  0
 12 23  1  0
M  CHG  1  15  -1
M  END
$$$$
=
     RDKit          3D

 21 21  0  0  0  0  0  0  0  0999 V2000
   18.7880   14.8820    3.9320 C   0  0  0  0  0  0  0  0  0  0  0  0
   17.3820   15.1880    4.1440 N   0  0  0  0  0  0  0  0  0  0  0  0
   16.3400   14.6530    3.4330 C   0  0  0  0  0  0  0  0  0  0  0  0
   15.1680   15.1560    3.9540 C   0  0  0  0  0  0  0  0  0  0  0  0
   15.5160   16.0200    5.0200 C   0  0  0  0  0  0  0  0  0  0  0  0
   16.8910   16.0180    5.1170 C   0  0  0  0  0  0  0  0  0  0  0  0
   19.6130   14.9790    5.2100 C   0  0  0  0  0  0  0  0  0  0  0  0
   20.7870   15.9310    5.0160 C   0  0  0  0  0  0  0  0  0  0  0  0
   21.0240   15.3900    7.2940 O   0  0  0  0  0  1  0  0  0  0  0  0
   21.4890   16.0970    6.3590 C   0  0  0  0  0  0  0  0  0  0  0  0
   22.4400   16.9280    6.3630 O   0  0  0  0  0  0  0  0  0  0  0  0
   18.8693   13.8582    3.5381 H   0  0  0  0  0  0  0  0  0  0  0  0
   19.1854   15.6244    3.2242 H   0  0  0  0  0  0  0  0  0  0  0  0
   16.4244   13.9465    2.5941 H   0  0  0  0  0  0  0  0  0  0  0  0
   14.1497   14.9283    3.6059 H   0  0  0  0  0  0  0  0  0  0  0  0
   14.8185   16.5877    5.6534 H   0  0  0  0  0  0  0  0  0  0  0  0
   17.4888   16.5833    5.8471 H   0  0  0  0  0  0  0  0  0  0  0  0
   18.9754   15.3519    6.0251 H   0  0  0  0  0  0  0  0  0  0  0  0
   20.0018   13.9806    5.4593 H   0  0  0  0  0  0  0  0  0  0  0  0
   21.4877   15.5133    4.2781 H   0  0  0  0  0  0  0  0  0  0  0  0
   20.4312   16.9050    4.6490 H   0  0  0  0  0  0  0  0  0  0  0  0
  2  1  1  0
  3  2  1  0
  4  3  2  0
  5  4  1  0
  6  5  2  0
  6  2  1  0
  7  1  1  0
  8  7  1  0
 10  8  1  0
 10  9  1  0
 11 10  2  0
  1 12  1  0
  1 13  1  0
  3 14  1  0
  4 15  1  0
  5 16  1  0
  6 17  1  0
  7 18  1  0
  7 19  1  0
  8 20  1  0
  8 21  1  0
M  CHG  1   9  -1
M  END
$$$$
=
     RDKit          3D

 19 20  0  0  0  0  0  0  0  0999 V2000
   18.4260   14.2850    3.7620 C   0  0  0  0  0  0  0  0  0  0  0  0
   18.7100   13.1800    3.1210 N   0  0  0  0  0  0  0  0  0  0  0  0
   17.6800   12.4190    2.6580 N   0  0  0  0  0  0  0  0  0  0  0  0
   16.3430   12.6950    2.7970 C   0  0  0  0  0  0  0  0  0  0  0  0
   15.4660   11.9610    2.3490 O   0  0  0  0  0  0  0  0  0  0  0  0
   16.0090   13.9320    3.5210 C   0  0  0  0  0  0  0  0  0  0  0  0
   17.0380   14.7310    4.0060 C   0  0  0  0  0  0  0  0  0  0  0  0
   16.7310   15.9000    4.7110 C   0  0  0  0  0  0  0  0  0  0  0  0
   15.3970   16.2640    4.9180 C   0  0  0  0  0  0  0  0  0  0  0  0
   14.3670   15.4610    4.4270 C   0  0  0  0  0  0  0  0  0  0  0  0
   14.6700   14.2930    3.7280 C   0  0  0  0  0  0  0  0  0  0  0  0
   20.0580   15.9720    3.4270 O   0  0  0  0  0  1  0  0  0  0  0  0
   19.6240   15.1010    4.2460 C   0  0  0  0  0  0  0  0  0  0  0  0
   20.0260   14.8750    5.4280 O   0  0  0  0  0  0  0  0  0  0  0  0
   17.9279   11.5545    2.1560 H   0  0  0  0  0  0  0  0  0  0  0  0
   17.5403   16.5335    5.1029 H   0  0  0  0  0  0  0  0  0  0  0  0
   15.1589   17.1856    5.4693 H   0  0  0  0  0  0  0  0  0  0  0  0
   13.3180   15.7487    4.5910 H   0  0  0  0  0  0  0  0  0  0  0  0
   13.8609   13.6567    3.3401 H   0  0  0  0  0  0  0  0  0  0  0  0
  2  1  2  0
  3  2  1  0
  4  3  1  0
  5  4  2  0
  6  4  1  0
  7  6  2  0
  7  1  1  0
  8  7  1  0
  9  8  2  0
 10  9  1  0
 11 10  2  0
 11  6  1  0
 13 12  1  0
 13  1  1  0
 14 13  2  0
  3 15  1  0
  8 16  1  0
  9 17  1  0
 10 18  1  0
 11 19  1  0
M  CHG  1  12  -1
M  END
$$$$
=
     RDKit          3D

 20 21  0  0  0  0  0  0  0  0999 V2000
   19.8960   15.5210    5.1630 C   0  0  0  0  0  0  0  0  0  0  0  0
   20.2710   15.0480    6.4000 C   0  0  0  0  0  0  0  0  0  0  0  0
   21.3480   15.7310    6.8920 N   0  0  0  0  0  0  0  0  0  0  0  0
   21.6150   16.6360    5.9730 C   0  0  0  0  0  0  0  0  0  0  0  0
   20.7190   16.5890    4.8880 N   0  0  0  0  0  0  0  0  0  0  0  0
   20.7630   17.5440    3.8430 C   0  0  0  0  0  0  0  0  0  0  0  0
   19.7410   17.5510    2.7470 C   0  0  0  0  0  0  0  0  0  0  0  0
   21.7270   18.4900    3.8750 C   0  0  0  0  0  0  0  0  0  0  0  0
   22.6950   18.5130    4.9530 C   0  0  0  0  0  0  0  0  0  0  0  0
   22.6340   17.6270    5.9600 C   0  0  0  0  0  0  0  0  0  0  0  0
   17.5770   15.1860    4.6460 O   0  0  0  0  0  1  0  0  0  0  0  0
   18.7650   14.8820    4.3360 C   0  0  0  0  0  0  0  0  0  0  0  0
   19.1330   14.1260    3.3880 O   0  0  0  0  0  0  0  0  0  0  0  0
   19.7673   14.2239    6.9265 H   0  0  0  0  0  0  0  0  0  0  0  0
   18.7325   17.5579    3.1861 H   0  0  0  0  0  0  0  0  0  0  0  0
   19.8763   18.4482    2.1252 H   0  0  0  0  0  0  0  0  0  0  0  0
   19.8640   16.6520    2.1252 H   0  0  0  0  0  0  0  0  0  0  0  0
   21.7773   19.2469    3.0784 H   0  0  0  0  0  0  0  0  0  0  0  0
   23.4936   19.2694    4.9462 H   0  0  0  0  0  0  0  0  0  0  0  0
   23.3722   17.6680    6.7745 H   0  0  0  0  0  0  0  0  0  0  0  0
  2  1  2  0
  3  2  1  0
  4  3  2  0
  5  1  1  0
  5  4  1  0
  6  5  1  0
  7  6  1  0
  8  6  2  0
  9  8  1  0
 10  4  1  0
 10  9  2  0
 12 11  1  0
 12  1  1  0
 13 12  2  0
  2 14  1  0
  7 15  1  0
  7 16  1  0
  7 17  1  0
  8 18  1  0
  9 19  1  0
 10 20  1  0
M  CHG  1  11  -1
M  END
$$$$
=
     RDKit          3D

 28 29  0  0  0  0  0  0  0  0999 V2000
   19.5710   16.3620    4.1030 N   0  0  0  0  0  0  0  0  0  0  0  0
   19.9990   15.1440    3.6990 N   0  0  0  0  0  0  0  0  0  0  0  0
   18.9020   14.4060    3.6130 N   0  0  0  0  0  0  0  0  0  0  0  0
   17.8410   15.2390    3.8860 C   0  0  0  0  0  0  0  0  0  0  0  0
   18.2220   16.5080    4.1030 N   0  0  0  0  0  0  0  0  0  0  0  0
   16.4570   14.7840    3.8750 C   0  0  0  0  0  0  0  0  0  0  0  0
   16.0890   13.6350    3.1610 C   0  0  0  0  0  0  0  0  0  0  0  0
   14.7610   13.1960    3.1480 C   0  0  0  0  0  0  0  0  0  0  0  0
   13.7760   13.8910    3.8590 C   0  0  0  0  0  0  0  0  0  0  0  0
   14.1370   15.0450    4.5640 C   0  0  0  0  0  0  0  0  0  0  0  0
   15.4650   15.4840    4.5760 C   0  0  0  0  0  0  0  0  0  0  0  0
   12.3480   13.4380    3.8220 C   0  0  0  0  0  0  0  0  0  0  0  0
   20.4590   17.5080    4.0580 C   0  0  0  0  0  0  0  0  0  0  0  0
   20.8340   18.0860    5.4120 C   0  0  0  0  0  0  0  0  0  0  0  0
   22.0730   16.5460    6.6660 O   0  0  0  0  0  1  0  0  0  0  0  0
   22.1670   17.5560    5.9130 C   0  0  0  0  0  0  0  0  0  0  0  0
   23.1910   18.1950    5.5530 O   0  0  0  0  0  0  0  0  0  0  0  0
   16.8532   13.0724    2.6047 H   0  0  0  0  0  0  0  0  0  0  0  0
   14.4887   12.2976    2.5746 H   0  0  0  0  0  0  0  0  0  0  0  0
   13.3702   15.6112    5.1130 H   0  0  0  0  0  0  0  0  0  0  0  0
   15.7340   16.3883    5.1416 H   0  0  0  0  0  0  0  0  0  0  0  0
   11.9742   13.3194    4.8497 H   0  0  0  0  0  0  0  0  0  0  0  0
   11.7392   14.1871    3.2946 H   0  0  0  0  0  0  0  0  0  0  0  0
   12.2824   12.4749    3.2946 H   0  0  0  0  0  0  0  0  0  0  0  0
   21.3853   17.2017    3.5498 H   0  0  0  0  0  0  0  0  0  0  0  0
   19.9101   18.3003    3.5280 H   0  0  0  0  0  0  0  0  0  0  0  0
   20.8983   19.1806    5.3244 H   0  0  0  0  0  0  0  0  0  0  0  0
   20.0591   17.7870    6.1332 H   0  0  0  0  0  0  0  0  0  0  0  0
  2  1  1  0
  3  2  2  0
  4  3  1  0
  5  4  2  0
  5  1  1  0
  6  4  1  0
  7  6  2  0
  8  7  1  0
  9  8  2  0
 10  9  1  0
 11 10  2  0
 11  6  1  0
 12  9  1  0
 13  1  1  0
 14 13  1  0
 16 14  1  0
 16 15  1  0
 17 16  2  0
  7 18  1  0
  8 19  1  0
 10 20  1  0
 11 21  1  0
 12 22  1  0
 12 23  1  0
 12 24  1  0
 13 25  1  0
 13 26  1  0
 14 27  1  0
 14 28  1  0
M  CHG  1  15  -1
M  END
$$$$
=
     RDKit          3D

 40 40  0  0  0  0  0  0  0  0999 V2000
   24.9400   26.5950   15.6900 C   0  0  1  0  0  0  0  0  0  0  0  0
   27.4840   26.5380   17.1590 O   0  0  0  0  0  0  0  0  0  0  0  0
   27.1460   27.5100   16.5030 C   0  0  0  0  0  0  0  0  0  0  0  0
   25.9950   27.6280   15.8050 N   0  0  0  0  0  0  0  0  0  0  0  0
   27.8710   28.6430   16.3410 O   0  0  0  0  0  0  0  0  0  0  0  0
   28.8510   28.7460   15.2800 C   0  0  0  0  0  0  0  0  0  0  0  0
   29.9560   29.6460   15.8570 C   0  0  0  0  0  0  0  0  0  0  0  0
   28.2650   29.4300   14.0400 C   0  0  0  0  0  0  0  0  0  0  0  0
   29.4630   27.3800   14.9470 C   0  0  0  0  0  0  0  0  0  0  0  0
   23.8060   26.8600   16.7130 C   0  0  0  0  0  0  0  0  0  0  0  0
   22.8120   27.5130   16.2970 O   0  0  0  0  0  0  0  0  0  0  0  0
   24.0090   26.3420   17.8560 O   0  0  0  0  0  1  0  0  0  0  0  0
   24.2580   26.6660   14.3230 C   0  0  0  0  0  0  0  0  0  0  0  0
   25.0420   26.1300   13.2210 N   0  0  0  0  0  0  0  0  0  0  0  0
   26.3480   26.4760   13.1310 N   0  0  0  0  0  0  0  0  0  0  0  0
   26.7780   25.8690   12.0220 C   0  0  0  0  0  0  0  0  0  0  0  0
   25.7310   25.2040   11.3530 C   0  0  0  0  0  0  0  0  0  0  0  0
   24.6090   25.4120   12.1280 C   0  0  0  0  0  0  0  0  0  0  0  0
   23.2150   24.9450   11.9240 C   0  0  0  0  0  0  0  0  0  0  0  0
   28.2020   25.9620   11.6290 C   0  0  0  0  0  0  0  0  0  0  0  0
   25.4329   25.6256   15.8555 H   0  0  0  0  0  0  0  0  0  0  0  0
   25.8372   28.5164   15.3082 H   0  0  0  0  0  0  0  0  0  0  0  0
   29.9177   29.6148   16.9559 H   0  0  0  0  0  0  0  0  0  0  0  0
   30.9376   29.2871   15.5140 H   0  0  0  0  0  0  0  0  0  0  0  0
   29.8032   30.6799   15.5140 H   0  0  0  0  0  0  0  0  0  0  0  0
   27.5789   30.2309   14.3528 H   0  0  0  0  0  0  0  0  0  0  0  0
   29.0798   29.8594   13.4386 H   0  0  0  0  0  0  0  0  0  0  0  0
   27.7157   28.6907   13.4386 H   0  0  0  0  0  0  0  0  0  0  0  0
   29.7014   26.8478   15.8797 H   0  0  0  0  0  0  0  0  0  0  0  0
   28.7437   26.7889   14.3612 H   0  0  0  0  0  0  0  0  0  0  0  0
   30.3829   27.5234   14.3612 H   0  0  0  0  0  0  0  0  0  0  0  0
   23.3168   26.0996   14.3804 H   0  0  0  0  0  0  0  0  0  0  0  0
   24.1096   27.7342   14.1063 H   0  0  0  0  0  0  0  0  0  0  0  0
   25.7950   24.6385   10.4117 H   0  0  0  0  0  0  0  0  0  0  0  0
   22.7355   24.7844   12.9009 H   0  0  0  0  0  0  0  0  0  0  0  0
   22.6529   25.7039   11.3600 H   0  0  0  0  0  0  0  0  0  0  0  0
   23.2235   24.0006   11.3600 H   0  0  0  0  0  0  0  0  0  0  0  0
   28.8295   26.0030   12.5315 H   0  0  0  0  0  0  0  0  0  0  0  0
   28.4759   25.0798   11.0317 H   0  0  0  0  0  0  0  0  0  0  0  0
   28.3588   26.8723   11.0317 H   0  0  0  0  0  0  0  0  0  0  0  0
  3  2  2  0
  4  1  1  0
  4  3  1  0
  5  3  1  0
  6  5  1  0
  7  6  1  0
  8  6  1  0
  9  6  1  0
 10  1  1  0
 11 10  2  0
 12 10  1  0
 13  1  1  0
 14 13  1  0
 15 14  1  0
 16 15  2  0
 17 16  1  0
 18 17  2  0
 18 14  1  0
 19 18  1  0
 20 16  1  0
  1 21  1  1
  4 22  1  0
  7 23  1  0
  7 24  1  0
  7 25  1  0
  8 26  1  0
  8 27  1  0
  8 28  1  0
  9 29  1  0
  9 30  1  0
  9 31  1  0
 13 32  1  0
 13 33  1  0
 17 34  1  0
 19 35  1  0
 19 36  1  0
 19 37  1  0
 20 38  1  0
 20 39  1  0
 20 40  1  0
M  CHG  1  12  -1
M  END
$$$$
=
     RDKit          3D

 38 40  0  0  0  0  0  0  0  0999 V2000
   17.7670   16.0200    5.3840 C   0  0  1  0  0  0  0  0  0  0  0  0
   18.8850   15.2750    6.1550 C   0  0  0  0  0  0  0  0  0  0  0  0
   20.2710   15.7590    5.6970 C   0  0  2  0  0  0  0  0  0  0  0  0
   20.3900   17.2710    5.9530 C   0  0  0  0  0  0  0  0  0  0  0  0
   19.3040   18.0270    5.1670 C   0  0  2  0  0  0  0  0  0  0  0  0
   17.9170   17.5420    5.6260 C   0  0  0  0  0  0  0  0  0  0  0  0
   19.4740   17.7410    3.6670 C   0  0  0  0  0  0  0  0  0  0  0  0
   19.3490   16.2320    3.4030 C   0  0  2  0  0  0  0  0  0  0  0  0
   17.9660   15.7520    3.8680 C   0  0  0  0  0  0  0  0  0  0  0  0
   20.4350   15.4850    4.1940 C   0  0  0  0  0  0  0  0  0  0  0  0
   16.0750   15.3920    7.0080 O   0  0  0  0  0  0  0  0  0  0  0  0
   16.3750   15.5310    5.8240 C   0  0  0  0  0  0  0  0  0  0  0  0
   15.5060   15.2670    4.7900 N   0  0  0  0  0  0  0  0  0  0  0  0
   14.1930   14.6680    5.0110 C   0  0  0  0  0  0  0  0  0  0  0  0
   13.6900   14.0270    3.7360 C   0  0  0  0  0  0  0  0  0  0  0  0
   14.7500   13.0230    3.3180 C   0  0  0  0  0  0  0  0  0  0  0  0
   14.6440   11.8830    3.8520 O   0  0  0  0  0  0  0  0  0  0  0  0
   15.6160   13.4610    2.5100 O   0  0  0  0  0  1  0  0  0  0  0  0
   18.7721   15.4679    7.2320 H   0  0  0  0  0  0  0  0  0  0  0  0
   18.7997   14.1974    5.9513 H   0  0  0  0  0  0  0  0  0  0  0  0
   21.0527   15.2249    6.2572 H   0  0  0  0  0  0  0  0  0  0  0  0
   20.2657   17.4690    7.0279 H   0  0  0  0  0  0  0  0  0  0  0  0
   21.3806   17.6157    5.6213 H   0  0  0  0  0  0  0  0  0  0  0  0
   19.3963   19.1079    5.3493 H   0  0  0  0  0  0  0  0  0  0  0  0
   17.1407   18.0769    5.0592 H   0  0  0  0  0  0  0  0  0  0  0  0
   17.8078   17.7435    6.7019 H   0  0  0  0  0  0  0  0  0  0  0  0
   18.6949   18.2753    3.1035 H   0  0  0  0  0  0  0  0  0  0  0  0
   20.4683   18.0833    3.3442 H   0  0  0  0  0  0  0  0  0  0  0  0
   19.4714   16.0328    2.3281 H   0  0  0  0  0  0  0  0  0  0  0  0
   17.1898   16.2885    3.3026 H   0  0  0  0  0  0  0  0  0  0  0  0
   17.8919   14.6690    3.6900 H   0  0  0  0  0  0  0  0  0  0  0  0
   20.3431   14.4047    4.0083 H   0  0  0  0  0  0  0  0  0  0  0  0
   21.4254   15.8360    3.8684 H   0  0  0  0  0  0  0  0  0  0  0  0
   15.7914   15.4998    3.8281 H   0  0  0  0  0  0  0  0  0  0  0  0
   14.2706   13.9021    5.7967 H   0  0  0  0  0  0  0  0  0  0  0  0
   13.4876   15.4533    5.3205 H   0  0  0  0  0  0  0  0  0  0  0  0
   12.7326   13.5168    3.9180 H   0  0  0  0  0  0  0  0  0  0  0  0
   13.5186   14.7782    2.9510 H   0  0  0  0  0  0  0  0  0  0  0  0
  2  1  1  0
  3  2  1  0
  4  3  1  0
  5  4  1  0
  6  1  1  0
  6  5  1  0
  7  5  1  0
  8  7  1  0
  9  8  1  0
  9  1  1  0
 10  8  1  0
 10  3  1  0
 12 11  2  0
  1 12  1  1
 13 12  1  0
 14 13  1  0
 15 14  1  0
 16 15  1  0
 17 16  2  0
 18 16  1  0
  2 19  1  0
  2 20  1  0
  3 21  1  1
  4 22  1  0
  4 23  1  0
  5 24  1  6
  6 25  1  0
  6 26  1  0
  7 27  1  0
  7 28  1  0
  8 29  1  6
  9 30  1  0
  9 31  1  0
 10 32  1  0
 10 33  1  0
 13 34  1  0
 14 35  1  0
 14 36  1  0
 15 37  1  0
 15 38  1  0
M  CHG  1  18  -1
M  END
$$$$
=
     RDKit          3D

 70 74  0  0  0  0  0  0  0  0999 V2000
   24.0980   26.7770   13.9490 N   0  0  0  0  0  0  0  0  0  0  0  0
   25.0590   27.0400   14.9140 C   0  0  0  0  0  0  0  0  0  0  0  0
   24.8350   27.5740   15.9970 O   0  0  0  0  0  0  0  0  0  0  0  0
   20.9830   25.7950   14.4370 C   0  0  1  0  0  0  0  0  0  0  0  0
   21.9220   26.6170   15.3450 C   0  0  0  0  0  0  0  0  0  0  0  0
   22.6540   27.1550   14.1050 C   0  0  2  0  0  0  0  0  0  0  0  0
   21.6600   26.4110   13.1960 C   0  0  0  0  0  0  0  0  0  0  0  0
   19.2270   23.6160   13.6150 O   0  0  0  0  0  0  0  0  0  0  0  0
   20.3480   23.4020   14.0510 C   0  0  0  0  0  0  0  0  0  0  0  0
   21.1950   24.3450   14.5450 N   0  0  0  0  0  0  0  0  0  0  0  0
   20.9610   22.1960   14.1110 O   0  0  0  0  0  0  0  0  0  0  0  0
   20.7660   21.3170   15.2460 C   0  0  0  0  0  0  0  0  0  0  0  0
   19.4680   21.6470   15.9920 C   0  0  0  0  0  0  0  0  0  0  0  0
   21.9820   21.3320   16.1780 C   0  0  0  0  0  0  0  0  0  0  0  0
   20.6340   19.9150   14.6320 C   0  0  0  0  0  0  0  0  0  0  0  0
   26.3100   26.6270   14.5570 O   0  0  0  0  0  0  0  0  0  0  0  0
   27.2440   27.6820   14.2600 C   0  0  0  0  0  0  0  0  0  0  0  0
   28.6140   27.1060   13.8780 C   0  0  0  0  0  0  0  0  0  0  0  0
   29.3520   26.5260   15.0830 C   0  0  0  0  0  0  0  0  0  0  0  0
   29.7400   27.1750   16.2460 C   0  0  0  0  0  0  0  0  0  0  0  0
   30.4090   26.4320   17.2190 C   0  0  0  0  0  0  0  0  0  0  0  0
   30.6840   25.0680   17.0210 C   0  0  0  0  0  0  0  0  0  0  0  0
   30.2940   24.4220   15.8440 C   0  0  0  0  0  0  0  0  0  0  0  0
   29.6270   25.1560   14.8760 C   0  0  0  0  0  0  0  0  0  0  0  0
   29.1150   24.7660   13.5810 C   0  0  0  0  0  0  0  0  0  0  0  0
   28.5130   25.8870   12.9700 C   0  0  0  0  0  0  0  0  0  0  0  0
   27.9630   25.8110   11.6990 C   0  0  0  0  0  0  0  0  0  0  0  0
   27.9980   24.5810   11.0410 C   0  0  0  0  0  0  0  0  0  0  0  0
   28.5810   23.4570   11.6500 C   0  0  0  0  0  0  0  0  0  0  0  0
   29.1470   23.5460   12.9260 C   0  0  0  0  0  0  0  0  0  0  0  0
   24.4520   26.1660   12.6580 C   0  0  0  0  0  0  0  0  0  0  0  0
   24.2940   24.6640   12.6630 C   0  0  0  0  0  0  0  0  0  0  0  0
   24.5780   23.9230   11.3540 C   0  0  0  0  0  0  0  0  0  0  0  0
   23.1790   23.9710   11.8720 C   0  0  0  0  0  0  0  0  0  0  0  0
   24.7590   24.0070   13.9070 C   0  0  0  0  0  0  0  0  0  0  0  0
   23.9180   23.8950   14.8520 O   0  0  0  0  0  0  0  0  0  0  0  0
   25.9550   23.5770   13.9320 O   0  0  0  0  0  1  0  0  0  0  0  0
   19.8920   25.8451   14.5679 H   0  0  0  0  0  0  0  0  0  0  0  0
   21.4106   27.3915   15.9354 H   0  0  0  0  0  0  0  0  0  0  0  0
   22.4842   26.1260   16.1530 H   0  0  0  0  0  0  0  0  0  0  0  0
   22.8136   28.2376   13.9933 H   0  0  0  0  0  0  0  0  0  0  0  0
   22.1284   25.6734   12.5278 H   0  0  0  0  0  0  0  0  0  0  0  0
   21.0643   26.9631   12.4542 H   0  0  0  0  0  0  0  0  0  0  0  0
   22.0443   24.0198   15.0286 H   0  0  0  0  0  0  0  0  0  0  0  0
   19.6467   21.6016   17.0764 H   0  0  0  0  0  0  0  0  0  0  0  0
   19.1343   22.6586   15.7174 H   0  0  0  0  0  0  0  0  0  0  0  0
   18.6917   20.9176   15.7174 H   0  0  0  0  0  0  0  0  0  0  0  0
   21.6422   21.3278   17.2242 H   0  0  0  0  0  0  0  0  0  0  0  0
   22.5995   20.4414   15.9895 H   0  0  0  0  0  0  0  0  0  0  0  0
   22.5773   22.2376   15.9895 H   0  0  0  0  0  0  0  0  0  0  0  0
   20.5636   19.1677   15.4361 H   0  0  0  0  0  0  0  0  0  0  0  0
   19.7277   19.8709   14.0101 H   0  0  0  0  0  0  0  0  0  0  0  0
   21.5161   19.7025   14.0101 H   0  0  0  0  0  0  0  0  0  0  0  0
   26.8578   28.2800   13.4214 H   0  0  0  0  0  0  0  0  0  0  0  0
   27.3629   28.3098   15.1554 H   0  0  0  0  0  0  0  0  0  0  0  0
   29.1204   27.9620   13.4080 H   0  0  0  0  0  0  0  0  0  0  0  0
   29.5266   28.2435   16.3965 H   0  0  0  0  0  0  0  0  0  0  0  0
   30.7252   26.9198   18.1528 H   0  0  0  0  0  0  0  0  0  0  0  0
   31.2127   24.5016   17.8018 H   0  0  0  0  0  0  0  0  0  0  0  0
   30.5117   23.3549   15.6897 H   0  0  0  0  0  0  0  0  0  0  0  0
   27.5123   26.6946   11.2235 H   0  0  0  0  0  0  0  0  0  0  0  0
   27.5643   24.4903   10.0342 H   0  0  0  0  0  0  0  0  0  0  0  0
   28.5925   22.4950   11.1166 H   0  0  0  0  0  0  0  0  0  0  0  0
   29.6076   22.6662   13.3990 H   0  0  0  0  0  0  0  0  0  0  0  0
   23.7993   26.5862   11.8787 H   0  0  0  0  0  0  0  0  0  0  0  0
   25.5115   26.3887   12.4636 H   0  0  0  0  0  0  0  0  0  0  0  0
   24.8472   24.4905   10.4509 H   0  0  0  0  0  0  0  0  0  0  0  0
   25.2642   23.1165   11.0561 H   0  0  0  0  0  0  0  0  0  0  0  0
   22.4218   24.5740   11.3496 H   0  0  0  0  0  0  0  0  0  0  0  0
   22.4166   23.2149   12.1109 H   0  0  0  0  0  0  0  0  0  0  0  0
  2  1  1  0
  3  2  2  0
  5  4  1  0
  6  5  1  0
  6  1  1  0
  7  4  1  0
  7  6  1  0
  9  8  2  0
 10  9  1  0
 10  4  1  0
 11  9  1  0
 12 11  1  0
 13 12  1  0
 14 12  1  0
 15 12  1  0
 16  2  1  0
 17 16  1  0
 18 17  1  0
 19 18  1  0
 20 19  2  0
 21 20  1  0
 22 21  2  0
 23 22  1  0
 24 23  2  0
 24 19  1  0
 25 24  1  0
 26 25  2  0
 26 18  1  0
 27 26  1  0
 28 27  2  0
 29 28  1  0
 30 29  2  0
 30 25  1  0
 31  1  1  0
 32 31  1  0
 33 32  1  0
 34 33  1  0
 34 32  1  0
 35 32  1  0
 36 35  2  0
 37 35  1  0
  4 38  1  1
  5 39  1  0
  5 40  1  0
  6 41  1  6
  7 42  1  0
  7 43  1  0
 10 44  1  0
 13 45  1  0
 13 46  1  0
 13 47  1  0
 14 48  1  0
 14 49  1  0
 14 50  1  0
 15 51  1  0
 15 52  1  0
 15 53  1  0
 17 54  1  0
 17 55  1  0
 18 56  1  0
 20 57  1  0
 21 58  1  0
 22 59  1  0
 23 60  1  0
 27 61  1  0
 28 62  1  0
 29 63  1  0
 30 64  1  0
 31 65  1  0
 31 66  1  0
 33 67  1  0
 33 68  1  0
 34 69  1  0
 34 70  1  0
M  CHG  1  37  -1
M  END
$$$$
=
     RDKit          3D

 66 69  0  0  0  0  0  0  0  0999 V2000
   20.5470   14.7870    6.0790 C   0  0  1  0  0  0  0  0  0  0  0  0
   19.5060   15.5580    6.8930 C   0  0  0  0  0  0  0  0  0  0  0  0
   18.0780   15.3890    6.3520 C   0  0  0  0  0  0  0  0  0  0  0  0
   17.9410   15.7040    4.8380 C   0  0  1  0  0  0  0  0  0  0  0  0
   19.0000   14.8620    4.1240 C   0  0  0  0  0  0  0  0  0  0  0  0
   18.6980   13.8920    3.2430 C   0  0  0  0  0  0  0  0  0  0  0  0
   17.3150   13.4310    2.9160 C   0  0  2  0  0  0  0  0  0  0  0  0
   16.2610   13.9010    3.9430 C   0  0  1  0  0  0  0  0  0  0  0  0
   16.4910   15.4110    4.2790 C   0  0  1  0  0  0  0  0  0  0  0  0
   15.3580   16.0120    5.1630 C   0  0  0  0  0  0  0  0  0  0  0  0
   13.9450   15.7530    4.6170 C   0  0  2  0  0  0  0  0  0  0  0  0
   13.7190   14.2500    4.3750 C   0  0  2  0  0  0  0  0  0  0  0  0
   14.8200   13.7240    3.4080 C   0  0  2  0  0  0  0  0  0  0  0  0
   14.3020   12.3310    3.0270 C   0  0  0  0  0  0  0  0  0  0  0  0
   12.7630   12.4550    3.0410 C   0  0  0  0  0  0  0  0  0  0  0  0
   12.4730   13.8960    3.5080 C   0  0  1  0  0  0  0  0  0  0  0  0
   13.7600   13.4990    5.7320 C   0  0  0  0  0  0  0  0  0  0  0  0
   20.4290   15.0570    4.5730 C   0  0  0  0  0  0  0  0  0  0  0  0
   18.2310   17.2100    4.5900 C   0  0  0  0  0  0  0  0  0  0  0  0
   21.8550   15.1410    6.5330 O   0  0  0  0  0  0  0  0  0  0  0  0
   13.8000   16.4970    3.4050 O   0  0  0  0  0  0  0  0  0  0  0  0
   11.0350   14.2540    3.9610 C   0  0  1  0  0  0  0  0  0  0  0  0
   10.0060   13.7120    2.9530 C   0  0  0  0  0  0  0  0  0  0  0  0
   10.5730   13.9650    5.4000 C   0  0  0  0  0  0  0  0  0  0  0  0
    9.0960   14.1720    5.7150 C   0  0  0  0  0  0  0  0  0  0  0  0
    8.3650   12.9060    6.1820 C   0  0  0  0  0  0  0  0  0  0  0  0
    8.7400   12.4060    7.2780 O   0  0  0  0  0  0  0  0  0  0  0  0
    7.4650   12.5070    5.3870 O   0  0  0  0  0  1  0  0  0  0  0  0
   17.4060   12.0080    2.9130 O   0  0  0  0  0  0  0  0  0  0  0  0
   20.3641   13.7131    6.2314 H   0  0  0  0  0  0  0  0  0  0  0  0
   19.5332   15.1950    7.9310 H   0  0  0  0  0  0  0  0  0  0  0  0
   19.7599   16.6262    6.8257 H   0  0  0  0  0  0  0  0  0  0  0  0
   17.7644   14.3480    6.5196 H   0  0  0  0  0  0  0  0  0  0  0  0
   17.4444   16.1107    6.8883 H   0  0  0  0  0  0  0  0  0  0  0  0
   19.5334   13.4002    2.7232 H   0  0  0  0  0  0  0  0  0  0  0  0
   16.9804   13.8505    1.9558 H   0  0  0  0  0  0  0  0  0  0  0  0
   16.3765   13.2814    4.8445 H   0  0  0  0  0  0  0  0  0  0  0  0
   16.4333   15.9466    3.3200 H   0  0  0  0  0  0  0  0  0  0  0  0
   15.4289   15.5686    6.1672 H   0  0  0  0  0  0  0  0  0  0  0  0
   15.5033   17.1023    5.1743 H   0  0  0  0  0  0  0  0  0  0  0  0
   13.1897   16.0767    5.3483 H   0  0  0  0  0  0  0  0  0  0  0  0
   14.9654   14.3080    2.4872 H   0  0  0  0  0  0  0  0  0  0  0  0
   14.6573   12.0478    2.0252 H   0  0  0  0  0  0  0  0  0  0  0  0
   14.6588   11.5553    3.7205 H   0  0  0  0  0  0  0  0  0  0  0  0
   12.3541   12.2871    2.0337 H   0  0  0  0  0  0  0  0  0  0  0  0
   12.2983   11.7090    3.7025 H   0  0  0  0  0  0  0  0  0  0  0  0
   12.3830   14.6168    2.6819 H   0  0  0  0  0  0  0  0  0  0  0  0
   13.7202   14.2273    6.5554 H   0  0  0  0  0  0  0  0  0  0  0  0
   12.8976   12.8197    5.8013 H   0  0  0  0  0  0  0  0  0  0  0  0
   14.6912   12.9176    5.8013 H   0  0  0  0  0  0  0  0  0  0  0  0
   21.0811   14.3604    4.0258 H   0  0  0  0  0  0  0  0  0  0  0  0
   20.7342   16.0935    4.3668 H   0  0  0  0  0  0  0  0  0  0  0  0
   18.3307   17.7280    5.5553 H   0  0  0  0  0  0  0  0  0  0  0  0
   19.1657   17.3143    4.0196 H   0  0  0  0  0  0  0  0  0  0  0  0
   17.4018   17.6540    4.0196 H   0  0  0  0  0  0  0  0  0  0  0  0
   21.8708   15.1453    7.5229 H   0  0  0  0  0  0  0  0  0  0  0  0
   13.6151   17.4455    3.6201 H   0  0  0  0  0  0  0  0  0  0  0  0
   11.0932   15.3523    3.9782 H   0  0  0  0  0  0  0  0  0  0  0  0
    9.1599   13.2663    3.4966 H   0  0  0  0  0  0  0  0  0  0  0  0
    9.6428   14.5358    2.3210 H   0  0  0  0  0  0  0  0  0  0  0  0
   10.4799   12.9465    2.3210 H   0  0  0  0  0  0  0  0  0  0  0  0
   10.8136   12.9143    5.6195 H   0  0  0  0  0  0  0  0  0  0  0  0
   11.1003   14.7051    6.0199 H   0  0  0  0  0  0  0  0  0  0  0  0
    9.0162   14.9285    6.5096 H   0  0  0  0  0  0  0  0  0  0  0  0
    8.6151   14.4845    4.7763 H   0  0  0  0  0  0  0  0  0  0  0  0
   17.4272   11.6767    3.8457 H   0  0  0  0  0  0  0  0  0  0  0  0
  2  1  1  0
  3  2  1  0
  4  3  1  0
  5  4  1  0
  6  5  2  0
  7  6  1  0
  8  7  1  0
  9  8  1  0
  9  4  1  0
 10  9  1  0
 11 10  1  0
 12 11  1  0
 13 12  1  0
 13  8  1  0
 14 13  1  0
 15 14  1  0
 16 15  1  0
 16 12  1  0
 12 17  1  1
 18  5  1  0
 18  1  1  0
  4 19  1  1
 20  1  1  0
 21 11  1  0
 22 16  1  0
 23 22  1  0
 24 22  1  0
 25 24  1  0
 26 25  1  0
 27 26  2  0
 28 26  1  0
 29  7  1  0
  1 30  1  6
  2 31  1  0
  2 32  1  0
  3 33  1  0
  3 34  1  0
  6 35  1  0
  7 36  1  6
  8 37  1  1
  9 38  1  6
 10 39  1  0
 10 40  1  0
 11 41  1  1
 13 42  1  6
 14 43  1  0
 14 44  1  0
 15 45  1  0
 15 46  1  0
 16 47  1  6
 17 48  1  0
 17 49  1  0
 17 50  1  0
 18 51  1  0
 18 52  1  0
 19 53  1  0
 19 54  1  0
 19 55  1  0
 20 56  1  0
 21 57  1  0
 22 58  1  1
 23 59  1  0
 23 60  1  0
 23 61  1  0
 24 62  1  0
 24 63  1  0
 25 64  1  0
 25 65  1  0
 29 66  1  0
M  CHG  1  28  -1
M  END
$$$$
=
     RDKit          3D

 26 27  0  0  0  0  0  0  0  0999 V2000
   17.0880   14.7920    3.8700 N   0  0  0  0  0  0  0  0  0  0  0  0
   18.2300   14.0840    3.4880 C   0  0  0  0  0  0  0  0  0  0  0  0
   19.3880   14.5050    3.5300 O   0  0  0  0  0  0  0  0  0  0  0  0
   18.0510   12.7250    2.9420 C   0  0  0  0  0  0  0  0  0  0  0  0
   16.8470   12.1740    2.8120 C   0  0  0  0  0  0  0  0  0  0  0  0
   15.6570   12.9230    3.1980 C   0  0  0  0  0  0  0  0  0  0  0  0
   15.7530   14.2420    3.7170 C   0  0  0  0  0  0  0  0  0  0  0  0
   14.5330   14.9060    4.0170 C   0  0  0  0  0  0  0  0  0  0  0  0
   14.3850   16.3310    4.4770 C   0  0  0  0  0  0  0  0  0  0  0  0
   13.3040   14.2170    3.8530 C   0  0  0  0  0  0  0  0  0  0  0  0
   13.2450   12.9170    3.3740 C   0  0  0  0  0  0  0  0  0  0  0  0
   14.4220   12.2750    3.0350 C   0  0  0  0  0  0  0  0  0  0  0  0
   17.3570   15.9960    4.6770 C   0  0  0  0  0  0  0  0  0  0  0  0
   18.8870   15.6900    6.5070 O   0  0  0  0  0  1  0  0  0  0  0  0
   17.6710   15.7820    6.1780 C   0  0  0  0  0  0  0  0  0  0  0  0
   16.6410   15.7150    6.9170 O   0  0  0  0  0  0  0  0  0  0  0  0
   18.9376   12.1515    2.6339 H   0  0  0  0  0  0  0  0  0  0  0  0
   16.7493   11.1534    2.4133 H   0  0  0  0  0  0  0  0  0  0  0  0
   14.3817   16.3629    5.5765 H   0  0  0  0  0  0  0  0  0  0  0  0
   15.2259   16.9287    4.0954 H   0  0  0  0  0  0  0  0  0  0  0  0
   13.4392   16.7431    4.0954 H   0  0  0  0  0  0  0  0  0  0  0  0
   12.3671   14.7307    4.1143 H   0  0  0  0  0  0  0  0  0  0  0  0
   12.2776   12.4047    3.2654 H   0  0  0  0  0  0  0  0  0  0  0  0
   14.3906   11.2507    2.6353 H   0  0  0  0  0  0  0  0  0  0  0  0
   18.2194   16.5103    4.2279 H   0  0  0  0  0  0  0  0  0  0  0  0
   16.4163   16.5660    4.6610 H   0  0  0  0  0  0  0  0  0  0  0  0
  2  1  1  0
  3  2  2  0
  4  2  1  0
  5  4  2  0
  6  5  1  0
  7  6  2  0
  7  1  1  0
  8  7  1  0
  9  8  1  0
 10  8  2  0
 11 10  1  0
 12 11  2  0
 12  6  1  0
 13  1  1  0
 15 13  1  0
 15 14  1  0
 16 15  2  0
  4 17  1  0
  5 18  1  0
  9 19  1  0
  9 20  1  0
  9 21  1  0
 10 22  1  0
 11 23  1  0
 12 24  1  0
 13 25  1  0
 13 26  1  0
M  CHG  1  14  -1
M  END
$$$$
=
     RDKit          3D

 39 42  0  0  0  0  0  0  0  0999 V2000
   17.8720   15.7920    4.4970 N   0  0  0  0  0  0  0  0  0  0  0  0
   19.0770   15.2920    3.9850 C   0  0  0  0  0  0  0  0  0  0  0  0
   19.2810   14.3520    3.2420 O   0  0  0  0  0  0  0  0  0  0  0  0
   20.1090   16.1160    4.6800 C   0  0  2  0  0  0  0  0  0  0  0  0
   19.3780   17.4620    4.6170 C   0  0  1  0  0  0  0  0  0  0  0  0
   18.0680   17.0090    5.1640 C   0  0  0  0  0  0  0  0  0  0  0  0
   17.3500   17.6170    5.9310 O   0  0  0  0  0  0  0  0  0  0  0  0
   20.4780   18.4500    4.9630 C   0  0  2  0  0  0  0  0  0  0  0  0
   21.4610   17.9600    3.8540 C   0  0  0  0  0  0  0  0  0  0  0  0
   21.5570   16.5280    4.4130 C   0  0  1  0  0  0  0  0  0  0  0  0
   22.0360   16.9540    5.8000 C   0  0  0  0  0  0  0  0  0  0  0  0
   21.3340   18.0510    6.1460 C   0  0  0  0  0  0  0  0  0  0  0  0
   14.0860   13.8620    4.1940 C   0  0  2  0  0  0  0  0  0  0  0  0
   14.0890   15.3810    4.3640 C   0  0  0  0  0  0  0  0  0  0  0  0
   15.4280   15.9000    4.8940 C   0  0  0  0  0  0  0  0  0  0  0  0
   16.6260   15.0320    4.4720 C   0  0  1  0  0  0  0  0  0  0  0  0
   16.3690   14.3570    3.1230 C   0  0  0  0  0  0  0  0  0  0  0  0
   15.1680   13.4090    3.1980 C   0  0  0  0  0  0  0  0  0  0  0  0
   11.7650   13.5340    4.5210 O   0  0  0  0  0  1  0  0  0  0  0  0
   12.7320   13.2670    3.7520 C   0  0  0  0  0  0  0  0  0  0  0  0
   12.7390   12.6040    2.6790 O   0  0  0  0  0  0  0  0  0  0  0  0
   20.3704   15.4130    5.4847 H   0  0  0  0  0  0  0  0  0  0  0  0
   18.9795   18.1194    3.8302 H   0  0  0  0  0  0  0  0  0  0  0  0
   20.0870   19.4699    5.0933 H   0  0  0  0  0  0  0  0  0  0  0  0
   21.0282   18.0015    2.8436 H   0  0  0  0  0  0  0  0  0  0  0  0
   22.3947   18.5217    3.7035 H   0  0  0  0  0  0  0  0  0  0  0  0
   22.1147   15.7754    3.8364 H   0  0  0  0  0  0  0  0  0  0  0  0
   22.8099   16.4575    6.4038 H   0  0  0  0  0  0  0  0  0  0  0  0
   21.3757   18.5659    7.1172 H   0  0  0  0  0  0  0  0  0  0  0  0
   14.2970   13.4770    5.2026 H   0  0  0  0  0  0  0  0  0  0  0  0
   13.8895   15.8473    3.3879 H   0  0  0  0  0  0  0  0  0  0  0  0
   13.3115   15.6406    5.0976 H   0  0  0  0  0  0  0  0  0  0  0  0
   15.5835   16.9196    4.5116 H   0  0  0  0  0  0  0  0  0  0  0  0
   15.3766   15.8732    5.9925 H   0  0  0  0  0  0  0  0  0  0  0  0
   16.7426   14.2257    5.2111 H   0  0  0  0  0  0  0  0  0  0  0  0
   16.1689   15.1306    2.3670 H   0  0  0  0  0  0  0  0  0  0  0  0
   17.2593   13.7707    2.8516 H   0  0  0  0  0  0  0  0  0  0  0  0
   15.5279   12.4155    3.5037 H   0  0  0  0  0  0  0  0  0  0  0  0
   14.7037   13.3976    2.2009 H   0  0  0  0  0  0  0  0  0  0  0  0
  2  1  1  0
  3  2  2  0
  4  2  1  0
  5  4  1  0
  6  1  1  0
  6  5  1  0
  7  6  2  0
  8  5  1  0
  9  8  1  0
 10  4  1  0
 10  9  1  0
 11 10  1  0
 12  8  1  0
 12 11  2  0
 14 13  1  0
 15 14  1  0
 16 15  1  0
 16  1  1  0
 17 16  1  0
 18 13  1  0
 18 17  1  0
 20 19  1  0
 20 13  1  0
 21 20  2  0
  4 22  1  1
  5 23  1  6
  8 24  1  6
  9 25  1  0
  9 26  1  0
 10 27  1  6
 11 28  1  0
 12 29  1  0
 13 30  1  1
 14 31  1  0
 14 32  1  0
 15 33  1  0
 15 34  1  0
 16 35  1  1
 17 36  1  0
 17 37  1  0
 18 38  1  0
 18 39  1  0
M  CHG  1  19  -1
M  END
$$$$
=
     RDKit          3D

 37 39  0  0  0  0  0  0  0  0999 V2000
   28.9460   25.6590   14.8780 C   0  0  0  0  0  0  0  0  0  0  0  0
   29.3770   27.0400   15.3990 C   0  0  0  0  0  0  0  0  0  0  0  0
   30.6560   27.5030   15.6780 C   0  0  0  0  0  0  0  0  0  0  0  0
   30.8100   28.8150   16.1290 C   0  0  0  0  0  0  0  0  0  0  0  0
   29.6950   29.6470   16.3080 C   0  0  0  0  0  0  0  0  0  0  0  0
   28.4050   29.1730   16.0540 C   0  0  0  0  0  0  0  0  0  0  0  0
   28.2520   27.8670   15.6070 C   0  0  0  0  0  0  0  0  0  0  0  0
   27.0500   27.1170   15.3150 C   0  0  0  0  0  0  0  0  0  0  0  0
   27.4060   25.8130   14.9180 C   0  0  0  0  0  0  0  0  0  0  0  0
   26.4380   24.8700   14.6010 C   0  0  0  0  0  0  0  0  0  0  0  0
   25.0950   25.2440   14.6800 C   0  0  0  0  0  0  0  0  0  0  0  0
   24.7360   26.5430   15.0690 C   0  0  0  0  0  0  0  0  0  0  0  0
   25.7150   27.4900   15.3920 C   0  0  0  0  0  0  0  0  0  0  0  0
   29.3380   24.4610   15.7950 C   0  0  0  0  0  0  0  0  0  0  0  0
   28.9400   24.4840   16.9960 O   0  0  0  0  0  0  0  0  0  0  0  0
   30.0470   23.5630   15.2380 O   0  0  0  0  0  1  0  0  0  0  0  0
   29.3580   25.4480   13.3970 C   0  0  0  0  0  0  0  0  0  0  0  0
   28.6180   26.3290   12.3780 C   0  0  0  0  0  0  0  0  0  0  0  0
   27.8780   25.5180   11.3050 C   0  0  0  0  0  0  0  0  0  0  0  0
   26.4660   23.0230   11.0630 Br  0  0  0  0  0  0  0  0  0  0  0  0
   28.1190   24.0170   11.3400 C   0  0  0  0  0  0  0  0  0  0  0  0
   31.5305   26.8489   15.5462 H   0  0  0  0  0  0  0  0  0  0  0  0
   31.8169   29.2007   16.3464 H   0  0  0  0  0  0  0  0  0  0  0  0
   29.8372   30.6823   16.6515 H   0  0  0  0  0  0  0  0  0  0  0  0
   27.5290   29.8209   16.2050 H   0  0  0  0  0  0  0  0  0  0  0  0
   26.7221   23.8524   14.2949 H   0  0  0  0  0  0  0  0  0  0  0  0
   24.3108   24.5127   14.4347 H   0  0  0  0  0  0  0  0  0  0  0  0
   23.6729   26.8207   15.1208 H   0  0  0  0  0  0  0  0  0  0  0  0
   25.4327   28.5075   15.7001 H   0  0  0  0  0  0  0  0  0  0  0  0
   30.4342   25.6586   13.3102 H   0  0  0  0  0  0  0  0  0  0  0  0
   29.0912   24.4094   13.1519 H   0  0  0  0  0  0  0  0  0  0  0  0
   27.8850   26.9472   12.9170 H   0  0  0  0  0  0  0  0  0  0  0  0
   29.3739   26.9404   11.8634 H   0  0  0  0  0  0  0  0  0  0  0  0
   26.7993   25.6915   11.4323 H   0  0  0  0  0  0  0  0  0  0  0  0
   28.2706   25.8655   10.3380 H   0  0  0  0  0  0  0  0  0  0  0  0
   28.5400   23.7451   12.3192 H   0  0  0  0  0  0  0  0  0  0  0  0
   28.8167   23.7600   10.5294 H   0  0  0  0  0  0  0  0  0  0  0  0
  2  1  1  0
  3  2  2  0
  4  3  1  0
  5  4  2  0
  6  5  1  0
  7  2  1  0
  7  6  2  0
  8  7  1  0
  9  8  2  0
  9  1  1  0
 10  9  1  0
 11 10  2  0
 12 11  1  0
 13 12  2  0
 13  8  1  0
 14  1  1  0
 15 14  2  0
 16 14  1  0
 17  1  1  0
 18 17  1  0
 19 18  1  0
 21 20  1  0
 21 19  1  0
  3 22  1  0
  4 23  1  0
  5 24  1  0
  6 25  1  0
 10 26  1  0
 11 27  1  0
 12 28  1  0
 13 29  1  0
 17 30  1  0
 17 31  1  0
 18 32  1  0
 18 33  1  0
 19 34  1  0
 19 35  1  0
 21 36  1  0
 21 37  1  0
M  CHG  1  16  -1
M  END
$$$$
=
     RDKit          3D

 25 25  0  0  0  0  0  0  0  0999 V2000
   17.9330   16.0750    5.7100 C   0  0  0  0  0  0  0  0  0  0  0  0
   18.8790   15.2130    6.2920 C   0  0  0  0  0  0  0  0  0  0  0  0
   20.2390   15.4230    6.0850 C   0  0  0  0  0  0  0  0  0  0  0  0
   21.1260   14.5970    6.6570 F   0  0  0  0  0  0  0  0  0  0  0  0
   20.6790   16.4850    5.3100 C   0  0  0  0  0  0  0  0  0  0  0  0
   19.7480   17.3390    4.7350 C   0  0  0  0  0  0  0  0  0  0  0  0
   18.3800   17.1450    4.9250 C   0  0  0  0  0  0  0  0  0  0  0  0
   20.1620   18.3820    4.0010 F   0  0  0  0  0  0  0  0  0  0  0  0
   21.9900   16.6960    5.1320 F   0  0  0  0  0  0  0  0  0  0  0  0
   16.1740   15.4290    7.1210 O   0  0  0  0  0  0  0  0  0  0  0  0
   16.4880   15.8110    5.9920 C   0  0  0  0  0  0  0  0  0  0  0  0
   15.4340   16.0270    4.9230 C   0  0  0  0  0  0  0  0  0  0  0  0
   14.9570   14.7260    4.2850 C   0  0  0  0  0  0  0  0  0  0  0  0
   15.8900   14.2240    3.1880 C   0  0  0  0  0  0  0  0  0  0  0  0
   15.6090   12.8090    2.6760 C   0  0  0  0  0  0  0  0  0  0  0  0
   16.6530   12.1410    2.4280 O   0  0  0  0  0  0  0  0  0  0  0  0
   14.3980   12.4820    2.5600 O   0  0  0  0  0  1  0  0  0  0  0  0
   18.5429   14.3696    6.9131 H   0  0  0  0  0  0  0  0  0  0  0  0
   17.6553   17.8296    4.4602 H   0  0  0  0  0  0  0  0  0  0  0  0
   14.5695   16.5310    5.3798 H   0  0  0  0  0  0  0  0  0  0  0  0
   15.8910   16.6350    4.1284 H   0  0  0  0  0  0  0  0  0  0  0  0
   14.8895   13.9559    5.0675 H   0  0  0  0  0  0  0  0  0  0  0  0
   13.9801   14.9258    3.8206 H   0  0  0  0  0  0  0  0  0  0  0  0
   15.8115   14.9142    2.3351 H   0  0  0  0  0  0  0  0  0  0  0  0
   16.8923   14.1867    3.6396 H   0  0  0  0  0  0  0  0  0  0  0  0
  2  1  2  0
  3  2  1  0
  4  3  1  0
  5  3  2  0
  6  5  1  0
  7  1  1  0
  7  6  2  0
  8  6  1  0
  9  5  1  0
 11 10  2  0
 11  1  1  0
 12 11  1  0
 13 12  1  0
 14 13  1  0
 15 14  1  0
 16 15  2  0
 17 15  1  0
  2 18  1  0
  7 19  1  0
 12 20  1  0
 12 21  1  0
 13 22  1  0
 13 23  1  0
 14 24  1  0
 14 25  1  0
M  CHG  1  17  -1
M  END
$$$$
=
     RDKit          3D

 37 37  0  0  0  0  0  0  0  0999 V2000
   18.9770   15.6100    4.4220 N   0  0  0  0  0  0  0  0  0  0  0  0
   18.1000   14.6050    4.0080 C   0  0  0  0  0  0  0  0  0  0  0  0
   18.4410   13.4240    3.9440 O   0  0  0  0  0  0  0  0  0  0  0  0
   16.6630   15.0050    3.6810 C   0  0  0  0  0  0  0  0  0  0  0  0
   15.8370   13.8550    3.0770 C   0  0  0  0  0  0  0  0  0  0  0  0
   14.4740   14.0840    3.6500 C   0  0  0  0  0  0  0  0  0  0  0  0
   14.5080   14.9370    4.6770 C   0  0  0  0  0  0  0  0  0  0  0  0
   15.8950   15.4240    4.9430 C   0  0  0  0  0  0  0  0  0  0  0  0
   18.6860   17.0560    4.3820 C   0  0  0  0  0  0  0  0  0  0  0  0
   19.7100   17.8820    3.5580 C   0  0  0  0  0  0  0  0  0  0  0  0
   22.0770   18.4120    4.2840 C   0  0  0  0  0  0  0  0  0  0  0  0
   20.6300   18.7130    4.4180 N   0  0  0  0  0  4  0  0  0  0  0  0
   20.1670   18.8270    5.8350 C   0  0  0  0  0  0  0  0  0  0  0  0
   20.3890   15.2210    4.7240 C   0  0  0  0  0  0  0  0  0  0  0  0
   20.6940   15.0800    6.2250 C   0  0  0  0  0  0  0  0  0  0  0  0
   21.5890   15.8110    6.7160 O   0  0  0  0  0  0  0  0  0  0  0  0
   19.8310   14.3950    6.8710 O   0  0  0  0  0  1  0  0  0  0  0  0
   16.7701   15.8292    2.9604 H   0  0  0  0  0  0  0  0  0  0  0  0
   15.8196   13.9149    1.9788 H   0  0  0  0  0  0  0  0  0  0  0  0
   16.2439   12.8598    3.3095 H   0  0  0  0  0  0  0  0  0  0  0  0
   13.5570   13.6084    3.2720 H   0  0  0  0  0  0  0  0  0  0  0  0
   13.6240   15.2432    5.2556 H   0  0  0  0  0  0  0  0  0  0  0  0
   15.9117   16.5165    5.0702 H   0  0  0  0  0  0  0  0  0  0  0  0
   16.3267   15.0119    5.8670 H   0  0  0  0  0  0  0  0  0  0  0  0
   17.6899   17.1965    3.9371 H   0  0  0  0  0  0  0  0  0  0  0  0
   18.7416   17.4213    5.4181 H   0  0  0  0  0  0  0  0  0  0  0  0
   20.3204   17.1880    2.9616 H   0  0  0  0  0  0  0  0  0  0  0  0
   19.1376   18.5759    2.9249 H   0  0  0  0  0  0  0  0  0  0  0  0
   22.5262   18.3186    5.2837 H   0  0  0  0  0  0  0  0  0  0  0  0
   22.2058   17.4678    3.7345 H   0  0  0  0  0  0  0  0  0  0  0  0
   22.5716   19.2265    3.7345 H   0  0  0  0  0  0  0  0  0  0  0  0
   20.5524   19.6584    4.0167 H   0  0  0  0  0  0  0  0  0  0  0  0
   21.0079   18.6200    6.5133 H   0  0  0  0  0  0  0  0  0  0  0  0
   19.7910   19.8446    6.0171 H   0  0  0  0  0  0  0  0  0  0  0  0
   19.3615   18.1004    6.0171 H   0  0  0  0  0  0  0  0  0  0  0  0
   20.5929   14.2556    4.2378 H   0  0  0  0  0  0  0  0  0  0  0  0
   21.0293   16.0311    4.3448 H   0  0  0  0  0  0  0  0  0  0  0  0
  2  1  1  0
  3  2  2  0
  4  2  1  0
  5  4  1  0
  6  5  1  0
  7  6  2  0
  8  7  1  0
  8  4  1  0
  9  1  1  0
 10  9  1  0
 12 10  1  0
 12 11  1  0
 13 12  1  0
 14  1  1  0
 15 14  1  0
 16 15  2  0
 17 15  1  0
  4 18  1  0
  5 19  1  0
  5 20  1  0
  6 21  1  0
  7 22  1  0
  8 23  1  0
  8 24  1  0
  9 25  1  0
  9 26  1  0
 10 27  1  0
 10 28  1  0
 11 29  1  0
 11 30  1  0
 11 31  1  0
 12 32  1  0
 13 33  1  0
 13 34  1  0
 13 35  1  0
 14 36  1  0
 14 37  1  0
M  CHG  2  12   1  17  -1
M  END
$$$$
=
     RDKit          3D

 32 33  0  0  0  0  0  0  0  0999 V2000
   15.8440   13.3810    3.0770 N   0  0  0  0  0  0  0  0  0  0  0  0
   16.9850   12.5950    2.9370 C   0  0  0  0  0  0  0  0  0  0  0  0
   18.1940   13.0770    3.2540 C   0  0  0  0  0  0  0  0  0  0  0  0
   18.3200   14.3710    3.7270 N   0  0  0  0  0  0  0  0  0  0  0  0
   17.2170   15.1760    3.8870 C   0  0  0  0  0  0  0  0  0  0  0  0
   15.8890   14.6970    3.5710 C   0  0  0  0  0  0  0  0  0  0  0  0
   14.8970   15.3970    3.7620 O   0  0  0  0  0  0  0  0  0  0  0  0
   17.6650   16.3840    4.3630 C   0  0  0  0  0  0  0  0  0  0  0  0
   19.0670   16.2390    4.4750 C   0  0  0  0  0  0  0  0  0  0  0  0
   19.4580   15.0130    4.0990 N   0  0  0  0  0  0  0  0  0  0  0  0
   20.0980   17.2520    4.9470 C   0  0  0  0  0  0  0  0  0  0  0  0
   21.0490   16.6010    5.9730 C   0  0  0  0  0  0  0  0  0  0  0  0
   20.9550   17.7850    3.7800 C   0  0  0  0  0  0  0  0  0  0  0  0
   19.3960   18.4560    5.6070 C   0  0  0  0  0  0  0  0  0  0  0  0
   14.5440   12.7930    2.6820 C   0  0  0  0  0  0  0  0  0  0  0  0
   14.0040   11.1880    4.3460 O   0  0  0  0  0  1  0  0  0  0  0  0
   13.6560   12.3010    3.8470 C   0  0  0  0  0  0  0  0  0  0  0  0
   12.6930   13.0530    4.1650 O   0  0  0  0  0  0  0  0  0  0  0  0
   16.8923   11.5653    2.5613 H   0  0  0  0  0  0  0  0  0  0  0  0
   19.0863   12.4442    3.1383 H   0  0  0  0  0  0  0  0  0  0  0  0
   17.0631   17.2724    4.6048 H   0  0  0  0  0  0  0  0  0  0  0  0
   20.7059   16.8358    6.9914 H   0  0  0  0  0  0  0  0  0  0  0  0
   21.0522   15.5104    5.8295 H   0  0  0  0  0  0  0  0  0  0  0  0
   22.0668   16.9927    5.8295 H   0  0  0  0  0  0  0  0  0  0  0  0
   21.8248   18.3260    4.1810 H   0  0  0  0  0  0  0  0  0  0  0  0
   21.2999   16.9419    3.1635 H   0  0  0  0  0  0  0  0  0  0  0  0
   20.3513   18.4672    3.1635 H   0  0  0  0  0  0  0  0  0  0  0  0
   19.4527   18.3588    6.7012 H   0  0  0  0  0  0  0  0  0  0  0  0
   19.8932   19.3864    5.2953 H   0  0  0  0  0  0  0  0  0  0  0  0
   18.3414   18.4816    5.2953 H   0  0  0  0  0  0  0  0  0  0  0  0
   13.9811   13.5572    2.1260 H   0  0  0  0  0  0  0  0  0  0  0  0
   14.7845   11.8997    2.0869 H   0  0  0  0  0  0  0  0  0  0  0  0
  2  1  1  0
  3  2  2  0
  4  3  1  0
  5  4  1  0
  6  1  1  0
  6  5  1  0
  7  6  2  0
  8  5  2  0
  9  8  1  0
 10  9  2  0
 10  4  1  0
 11  9  1  0
 12 11  1  0
 13 11  1  0
 14 11  1  0
 15  1  1  0
 17 16  1  0
 17 15  1  0
 18 17  2  0
  2 19  1  0
  3 20  1  0
  8 21  1  0
 12 22  1  0
 12 23  1  0
 12 24  1  0
 13 25  1  0
 13 26  1  0
 13 27  1  0
 14 28  1  0
 14 29  1  0
 14 30  1  0
 15 31  1  0
 15 32  1  0
M  CHG  1  16  -1
M  END
$$$$
=
     RDKit          3D

 43 43  0  0  0  0  0  0  0  0999 V2000
   15.8150   15.3070    3.6420 C   0  0  2  0  0  0  0  0  0  0  0  0
   16.3030   13.8630    3.8210 C   0  0  0  0  0  0  0  0  0  0  0  0
   17.7970   13.9520    3.5340 C   0  0  0  0  0  0  0  0  0  0  0  0
   18.1590   15.3220    3.8040 N   0  0  0  0  0  0  0  0  0  0  0  0
   16.9870   16.1340    4.2080 C   0  0  2  0  0  0  0  0  0  0  0  0
   19.4640   15.7160    3.9440 C   0  0  0  0  0  0  0  0  0  0  0  0
   20.4220   14.9870    3.7110 O   0  0  0  0  0  0  0  0  0  0  0  0
   16.8780   16.4050    5.7470 C   0  0  0  0  0  0  0  0  0  0  0  0
   16.9540   17.6270    6.0750 O   0  0  0  0  0  0  0  0  0  0  0  0
   16.6960   15.3910    6.4820 O   0  0  0  0  0  1  0  0  0  0  0  0
   14.4410   15.5890    4.2560 C   0  0  0  0  0  0  0  0  0  0  0  0
   13.7010   14.3510    4.7790 C   0  0  0  0  0  0  0  0  0  0  0  0
   12.7470   12.7740    3.0620 C   0  0  0  0  0  0  0  0  0  0  0  0
   12.4720   13.9780    3.9500 C   0  0  0  0  0  0  0  0  0  0  0  0
   19.5570   17.0120    4.3290 O   0  0  0  0  0  0  0  0  0  0  0  0
   20.6780   17.4920    5.1030 C   0  0  0  0  0  0  0  0  0  0  0  0
   21.0860   16.4800    6.1800 C   0  0  0  0  0  0  0  0  0  0  0  0
   20.1580   18.7620    5.7960 C   0  0  0  0  0  0  0  0  0  0  0  0
   21.8560   17.8740    4.2010 C   0  0  0  0  0  0  0  0  0  0  0  0
   15.6012   15.5679    2.5950 H   0  0  0  0  0  0  0  0  0  0  0  0
   16.1204   13.5110    4.8470 H   0  0  0  0  0  0  0  0  0  0  0  0
   15.7829   13.1512    3.1631 H   0  0  0  0  0  0  0  0  0  0  0  0
   18.3562   13.2697    4.1910 H   0  0  0  0  0  0  0  0  0  0  0  0
   18.0322   13.6636    2.4989 H   0  0  0  0  0  0  0  0  0  0  0  0
   17.0308   17.1627    3.8210 H   0  0  0  0  0  0  0  0  0  0  0  0
   14.5786   16.2853    5.0964 H   0  0  0  0  0  0  0  0  0  0  0  0
   13.8200   16.0007    3.4468 H   0  0  0  0  0  0  0  0  0  0  0  0
   14.3977   13.4998    4.7706 H   0  0  0  0  0  0  0  0  0  0  0  0
   13.3464   14.5908    5.7923 H   0  0  0  0  0  0  0  0  0  0  0  0
   12.9481   11.8935    3.6900 H   0  0  0  0  0  0  0  0  0  0  0  0
   11.8703   12.5789    2.4269 H   0  0  0  0  0  0  0  0  0  0  0  0
   13.6215   12.9789    2.4269 H   0  0  0  0  0  0  0  0  0  0  0  0
   12.1939   14.8336    3.3171 H   0  0  0  0  0  0  0  0  0  0  0  0
   11.6542   13.7207    4.6392 H   0  0  0  0  0  0  0  0  0  0  0  0
   20.9112   16.9137    7.1757 H   0  0  0  0  0  0  0  0  0  0  0  0
   20.4868   15.5643    6.0685 H   0  0  0  0  0  0  0  0  0  0  0  0
   22.1528   16.2360    6.0685 H   0  0  0  0  0  0  0  0  0  0  0  0
   20.2111   18.6323    6.8870 H   0  0  0  0  0  0  0  0  0  0  0  0
   20.7766   19.6215    5.4984 H   0  0  0  0  0  0  0  0  0  0  0  0
   19.1142   18.9409    5.4984 H   0  0  0  0  0  0  0  0  0  0  0  0
   22.7187   18.1538    4.8234 H   0  0  0  0  0  0  0  0  0  0  0  0
   22.1246   17.0169    3.5660 H   0  0  0  0  0  0  0  0  0  0  0  0
   21.5705   18.7256    3.5660 H   0  0  0  0  0  0  0  0  0  0  0  0
  2  1  1  0
  3  2  1  0
  4  3  1  0
  5  1  1  0
  5  4  1  0
  6  4  1  0
  7  6  2  0
  8  5  1  0
  9  8  2  0
 10  8  1  0
 11  1  1  0
 12 11  1  0
 14 13  1  0
 14 12  1  0
 15  6  1  0
 16 15  1  0
 17 16  1  0
 18 16  1  0
 19 16  1  0
  1 20  1  6
  2 21  1  0
  2 22  1  0
  3 23  1  0
  3 24  1  0
  5 25  1  6
 11 26  1  0
 11 27  1  0
 12 28  1  0
 12 29  1  0
 13 30  1  0
 13 31  1  0
 13 32  1  0
 14 33  1  0
 14 34  1  0
 17 35  1  0
 17 36  1  0
 17 37  1  0
 18 38  1  0
 18 39  1  0
 18 40  1  0
 19 41  1  0
 19 42  1  0
 19 43  1  0
M  CHG  1  10  -1
M  END
$$$$
=
     RDKit          3D

 35 36  0  0  0  0  0  0  0  0999 V2000
   17.0960   15.7860    4.2940 C   0  0  0  0  0  0  0  0  0  0  0  0
   17.6490   15.7070    5.7300 C   0  0  0  0  0  0  0  0  0  0  0  0
   19.0240   15.0510    5.7920 C   0  0  0  0  0  0  0  0  0  0  0  0
   20.0140   15.7730    4.9450 N   0  0  0  0  0  0  0  0  0  0  0  0
   19.4570   16.4420    3.7430 C   0  0  0  0  0  0  0  0  0  0  0  0
   18.2150   15.7140    3.2450 C   0  0  0  0  0  0  0  0  0  0  0  0
   13.7010   13.9690    4.2670 C   0  0  0  0  0  0  0  0  0  0  0  0
   14.0140   12.8590    3.4700 C   0  0  0  0  0  0  0  0  0  0  0  0
   15.3000   12.6940    2.9520 C   0  0  0  0  0  0  0  0  0  0  0  0
   16.2910   13.6400    3.2210 C   0  0  0  0  0  0  0  0  0  0  0  0
   16.0110   14.7640    4.0100 C   0  0  0  0  0  0  0  0  0  0  0  0
   14.7140   14.9060    4.5310 C   0  0  0  0  0  0  0  0  0  0  0  0
   11.9540   13.3870    5.7780 O   0  0  0  0  0  1  0  0  0  0  0  0
   12.3050   14.1610    4.8300 C   0  0  0  0  0  0  0  0  0  0  0  0
   11.5920   15.0780    4.3150 O   0  0  0  0  0  0  0  0  0  0  0  0
   21.2540   16.6120    5.7330 S   0  0  0  0  0  6  0  0  0  0  0  0
   21.3790   16.0780    7.0750 O   0  0  0  0  0  0  0  0  0  0  0  0
   22.3970   16.6670    4.8490 O   0  0  0  0  0  0  0  0  0  0  0  0
   20.5530   18.2430    5.8730 C   0  0  0  0  0  0  0  0  0  0  0  0
   16.6190   16.7740    4.2151 H   0  0  0  0  0  0  0  0  0  0  0  0
   17.7264   16.7269    6.1346 H   0  0  0  0  0  0  0  0  0  0  0  0
   16.9571   15.0885    6.3206 H   0  0  0  0  0  0  0  0  0  0  0  0
   19.3752   15.0556    6.8344 H   0  0  0  0  0  0  0  0  0  0  0  0
   18.9321   14.0223    5.4133 H   0  0  0  0  0  0  0  0  0  0  0  0
   19.1896   17.4780    3.9983 H   0  0  0  0  0  0  0  0  0  0  0  0
   20.2167   16.4274    2.9477 H   0  0  0  0  0  0  0  0  0  0  0  0
   18.4650   14.6601    3.0534 H   0  0  0  0  0  0  0  0  0  0  0  0
   17.8672   16.1943    2.3185 H   0  0  0  0  0  0  0  0  0  0  0  0
   13.2385   12.1104    3.2505 H   0  0  0  0  0  0  0  0  0  0  0  0
   15.5329   11.8167    2.3306 H   0  0  0  0  0  0  0  0  0  0  0  0
   17.3017   13.5017    2.8095 H   0  0  0  0  0  0  0  0  0  0  0  0
   14.4850   15.7760    5.1640 H   0  0  0  0  0  0  0  0  0  0  0  0
   20.4409   18.5039    6.9357 H   0  0  0  0  0  0  0  0  0  0  0  0
   21.2177   18.9709    5.3849 H   0  0  0  0  0  0  0  0  0  0  0  0
   19.5674   18.2616    5.3849 H   0  0  0  0  0  0  0  0  0  0  0  0
  2  1  1  0
  3  2  1  0
  4  3  1  0
  5  4  1  0
  6  1  1  0
  6  5  1  0
  8  7  2  0
  9  8  1  0
 10  9  2  0
 11 10  1  0
 11  1  1  0
 12 11  2  0
 12  7  1  0
 14  7  1  0
 14 13  1  0
 15 14  2  0
 16  4  1  0
 17 16  2  0
 18 16  2  0
 19 16  1  0
  1 20  1  0
  2 21  1  0
  2 22  1  0
  3 23  1  0
  3 24  1  0
  5 25  1  0
  5 26  1  0
  6 27  1  0
  6 28  1  0
  8 29  1  0
  9 30  1  0
 10 31  1  0
 12 32  1  0
 19 33  1  0
 19 34  1  0
 19 35  1  0
M  CHG  1  13  -1
M  END
$$$$
=
     RDKit          3D

 22 23  0  0  0  0  0  0  0  0999 V2000
   20.3090   16.2610    4.9990 C   0  0  0  0  0  0  0  0  0  0  0  0
   20.2290   15.3100    4.0110 C   0  0  0  0  0  0  0  0  0  0  0  0
   18.9550   14.8390    3.7380 N   0  0  0  0  0  0  0  0  0  0  0  0
   18.0720   15.4370    4.5140 C   0  0  0  0  0  0  0  0  0  0  0  0
   18.7610   16.5780    5.6240 S   0  0  0  0  0  0  0  0  0  0  0  0
   16.7410   15.1640    4.4630 N   0  0  0  0  0  0  0  0  0  0  0  0
   16.2180   14.2740    3.4420 C   0  0  0  0  0  0  0  0  0  0  0  0
   14.7200   14.2660    3.7280 C   0  0  0  0  0  0  0  0  0  0  0  0
   14.4640   15.6860    4.2060 C   0  0  0  0  0  0  0  0  0  0  0  0
   15.7120   16.0210    5.0260 C   0  0  0  0  0  0  0  0  0  0  0  0
   22.1000   16.5990    6.5930 O   0  0  0  0  0  1  0  0  0  0  0  0
   21.6470   16.9280    5.4560 C   0  0  0  0  0  0  0  0  0  0  0  0
   22.1670   17.7520    4.6410 O   0  0  0  0  0  0  0  0  0  0  0  0
   21.1169   14.9468    3.4727 H   0  0  0  0  0  0  0  0  0  0  0  0
   16.4260   14.6629    2.4343 H   0  0  0  0  0  0  0  0  0  0  0  0
   16.6696   13.2713    3.4684 H   0  0  0  0  0  0  0  0  0  0  0  0
   14.1435   14.0437    2.8179 H   0  0  0  0  0  0  0  0  0  0  0  0
   14.4186   13.4990    4.4566 H   0  0  0  0  0  0  0  0  0  0  0  0
   14.3576   16.3738    3.3542 H   0  0  0  0  0  0  0  0  0  0  0  0
   13.5340   15.7804    4.7858 H   0  0  0  0  0  0  0  0  0  0  0  0
   15.9812   17.0816    4.9132 H   0  0  0  0  0  0  0  0  0  0  0  0
   15.5674   15.8578    6.1042 H   0  0  0  0  0  0  0  0  0  0  0  0
  2  1  2  0
  3  2  1  0
  4  3  2  0
  5  4  1  0
  5  1  1  0
  6  4  1  0
  7  6  1  0
  8  7  1  0
  9  8  1  0
 10  9  1  0
 10  6  1  0
 12  1  1  0
 12 11  1  0
 13 12  2  0
  2 14  1  0
  7 15  1  0
  7 16  1  0
  8 17  1  0
  8 18  1  0
  9 19  1  0
  9 20  1  0
 10 21  1  0
 10 22  1  0
M  CHG  1  11  -1
M  END
$$$$
=
     RDKit          3D

 26 26  0  0  0  0  0  0  0  0999 V2000
   18.3050   16.2810    4.7260 C   0  0  0  0  0  0  0  0  0  0  0  0
   17.5900   16.5700    5.8970 C   0  0  0  0  0  0  0  0  0  0  0  0
   16.2910   16.0860    6.0730 C   0  0  0  0  0  0  0  0  0  0  0  0
   15.6950   15.3000    5.0880 C   0  0  0  0  0  0  0  0  0  0  0  0
   16.4160   14.9850    3.9390 C   0  0  0  0  0  0  0  0  0  0  0  0
   17.7070   15.4800    3.7460 C   0  0  0  0  0  0  0  0  0  0  0  0
   19.7090   16.8090    4.5310 C   0  0  0  0  0  0  0  0  0  0  0  0
   20.7610   15.7480    4.8170 C   0  0  0  0  0  0  0  0  0  0  0  0
   22.0520   16.6680    6.5500 O   0  0  0  0  0  1  0  0  0  0  0  0
   21.2380   15.7420    6.2690 C   0  0  0  0  0  0  0  0  0  0  0  0
   20.7770   14.8340    7.0140 O   0  0  0  0  0  0  0  0  0  0  0  0
   15.8840   14.2310    2.8740 O   0  0  0  0  0  0  0  0  0  0  0  0
   16.0050   12.8440    2.8380 C   0  0  0  0  0  0  0  0  0  0  0  0
   16.9850   12.1880    2.5150 O   0  0  0  0  0  0  0  0  0  0  0  0
   14.7010   12.2460    3.2740 C   0  0  0  0  0  0  0  0  0  0  0  0
   18.0553   17.1825    6.6833 H   0  0  0  0  0  0  0  0  0  0  0  0
   15.7367   16.3261    6.9923 H   0  0  0  0  0  0  0  0  0  0  0  0
   14.6662   14.9325    5.2170 H   0  0  0  0  0  0  0  0  0  0  0  0
   18.2550   15.2403    2.8228 H   0  0  0  0  0  0  0  0  0  0  0  0
   19.8198   17.1477    3.4903 H   0  0  0  0  0  0  0  0  0  0  0  0
   19.8616   17.6383    5.2374 H   0  0  0  0  0  0  0  0  0  0  0  0
   20.3327   14.7613    4.5866 H   0  0  0  0  0  0  0  0  0  0  0  0
   21.6343   15.9791    4.1893 H   0  0  0  0  0  0  0  0  0  0  0  0
   14.6562   12.2255    4.3729 H   0  0  0  0  0  0  0  0  0  0  0  0
   13.8707   12.8533    2.8845 H   0  0  0  0  0  0  0  0  0  0  0  0
   14.6194   11.2205    2.8845 H   0  0  0  0  0  0  0  0  0  0  0  0
  2  1  2  0
  3  2  1  0
  4  3  2  0
  5  4  1  0
  6  5  2  0
  6  1  1  0
  7  1  1  0
  8  7  1  0
 10  8  1  0
 10  9  1  0
 11 10  2  0
 12  5  1  0
 13 12  1  0
 14 13  2  0
 15 13  1  0
  2 16  1  0
  3 17  1  0
  4 18  1  0
  6 19  1  0
  7 20  1  0
  7 21  1  0
  8 22  1  0
  8 23  1  0
 15 24  1  0
 15 25  1  0
 15 26  1  0
M  CHG  1   9  -1
M  END
$$$$
=
     RDKit          3D

 23 25  0  0  0  0  0  0  0  0999 V2000
   18.9880   17.4400    3.4350 C   0  0  2  0  0  0  0  0  0  0  0  0
   19.2260   17.1350    4.9000 C   0  0  2  0  0  0  0  0  0  0  0  0
   18.7830   16.0300    3.9660 C   0  0  1  0  0  0  0  0  0  0  0  0
   17.3790   15.4860    4.1440 C   0  0  0  0  0  0  0  0  0  0  0  0
   16.8760   14.4960    3.2860 C   0  0  0  0  0  0  0  0  0  0  0  0
   15.5900   13.9790    3.4560 C   0  0  0  0  0  0  0  0  0  0  0  0
   14.7820   14.4480    4.4880 C   0  0  0  0  0  0  0  0  0  0  0  0
   15.2540   15.4400    5.3470 C   0  0  0  0  0  0  0  0  0  0  0  0
   16.5430   15.9650    5.1820 C   0  0  0  0  0  0  0  0  0  0  0  0
   17.0210   17.0400    6.0690 C   0  0  0  0  0  0  0  0  0  0  0  0
   18.2450   17.5710    5.9070 C   0  0  0  0  0  0  0  0  0  0  0  0
   21.2430   18.0250    3.1570 O   0  0  0  0  0  1  0  0  0  0  0  0
   20.1630   17.6820    2.5820 C   0  0  0  0  0  0  0  0  0  0  0  0
   20.0190   17.5340    1.3270 O   0  0  0  0  0  0  0  0  0  0  0  0
   18.3718   18.1641    2.8818 H   0  0  0  0  0  0  0  0  0  0  0  0
   20.0713   17.3112    5.5815 H   0  0  0  0  0  0  0  0  0  0  0  0
   19.1628   15.0403    3.6723 H   0  0  0  0  0  0  0  0  0  0  0  0
   17.5054   14.1209    2.4656 H   0  0  0  0  0  0  0  0  0  0  0  0
   15.2154   13.2011    2.7744 H   0  0  0  0  0  0  0  0  0  0  0  0
   13.7714   14.0362    4.6259 H   0  0  0  0  0  0  0  0  0  0  0  0
   14.6113   15.8124    6.1583 H   0  0  0  0  0  0  0  0  0  0  0  0
   16.3688   17.4121    6.8728 H   0  0  0  0  0  0  0  0  0  0  0  0
   18.5355   18.3933    6.5774 H   0  0  0  0  0  0  0  0  0  0  0  0
  2  1  1  0
  3  2  1  0
  3  1  1  0
  4  3  1  0
  5  4  2  0
  6  5  1  0
  7  6  2  0
  8  7  1  0
  9  8  2  0
  9  4  1  0
 10  9  1  0
 11  2  1  0
 11 10  2  0
 13 12  1  0
 13  1  1  0
 14 13  2  0
  1 15  1  1
  2 16  1  1
  3 17  1  6
  5 18  1  0
  6 19  1  0
  7 20  1  0
  8 21  1  0
 10 22  1  0
 11 23  1  0
M  CHG  1  12  -1
M  END
$$$$
=
     RDKit          3D

 38 38  0  0  0  0  0  0  0  0999 V2000
   17.5890   15.9620    4.3880 C   0  0  2  0  0  0  0  0  0  0  0  0
   17.1680   14.5130    4.0610 C   0  0  0  0  0  0  0  0  0  0  0  0
   18.2540   13.7000    3.3530 C   0  0  0  0  0  0  0  0  0  0  0  0
   17.8120   12.2450    3.1820 C   0  0  0  0  0  0  0  0  0  0  0  0
   16.4000   12.0770    3.0250 O   0  0  0  0  0  0  0  0  0  0  0  0
   15.7880   13.1890    2.3790 C   0  0  0  0  0  0  0  0  0  0  0  0
   15.8510   14.4300    3.2660 C   0  0  0  0  0  0  0  0  0  0  0  0
   19.2290   17.9450    2.9720 O   0  0  0  0  0  0  0  0  0  0  0  0
   19.7280   17.0890    3.6870 C   0  0  0  0  0  0  0  0  0  0  0  0
   19.0580   16.0940    4.3110 N   0  0  0  0  0  0  0  0  0  0  0  0
   21.0450   16.9860    3.9870 O   0  0  0  0  0  0  0  0  0  0  0  0
   21.5730   17.5460    5.2130 C   0  0  0  0  0  0  0  0  0  0  0  0
   21.8330   16.4570    6.2600 C   0  0  0  0  0  0  0  0  0  0  0  0
   20.6650   18.6570    5.7560 C   0  0  0  0  0  0  0  0  0  0  0  0
   22.9180   18.1690    4.8100 C   0  0  0  0  0  0  0  0  0  0  0  0
   17.0550   16.4900    5.7670 C   0  0  0  0  0  0  0  0  0  0  0  0
   17.3780   17.6690    6.0800 O   0  0  0  0  0  0  0  0  0  0  0  0
   16.3660   15.6410    6.4160 O   0  0  0  0  0  1  0  0  0  0  0  0
   17.1153   16.5983    3.6259 H   0  0  0  0  0  0  0  0  0  0  0  0
   17.0038   14.0579    5.0489 H   0  0  0  0  0  0  0  0  0  0  0  0
   18.4459   14.1384    2.3625 H   0  0  0  0  0  0  0  0  0  0  0  0
   19.1690   13.7234    3.9631 H   0  0  0  0  0  0  0  0  0  0  0  0
   18.3096   11.8355    2.2905 H   0  0  0  0  0  0  0  0  0  0  0  0
   18.0929   11.7180    4.1058 H   0  0  0  0  0  0  0  0  0  0  0  0
   16.3145   13.3928    1.4349 H   0  0  0  0  0  0  0  0  0  0  0  0
   14.7329   12.9475    2.1831 H   0  0  0  0  0  0  0  0  0  0  0  0
   15.7641   15.3238    2.6308 H   0  0  0  0  0  0  0  0  0  0  0  0
   15.0242   14.3697    3.9890 H   0  0  0  0  0  0  0  0  0  0  0  0
   19.6207   15.3651    4.7725 H   0  0  0  0  0  0  0  0  0  0  0  0
   21.7307   16.8855    7.2679 H   0  0  0  0  0  0  0  0  0  0  0  0
   21.1039   15.6434    6.1317 H   0  0  0  0  0  0  0  0  0  0  0  0
   22.8510   16.0606    6.1317 H   0  0  0  0  0  0  0  0  0  0  0  0
   20.6803   18.6383    6.8557 H   0  0  0  0  0  0  0  0  0  0  0  0
   21.0273   19.6330    5.4008 H   0  0  0  0  0  0  0  0  0  0  0  0
   19.6364   18.4963    5.4008 H   0  0  0  0  0  0  0  0  0  0  0  0
   23.4859   18.4321    5.7146 H   0  0  0  0  0  0  0  0  0  0  0  0
   23.4931   17.4456    4.2134 H   0  0  0  0  0  0  0  0  0  0  0  0
   22.7381   19.0755    4.2134 H   0  0  0  0  0  0  0  0  0  0  0  0
  2  1  1  0
  3  2  1  0
  4  3  1  0
  5  4  1  0
  6  5  1  0
  7  6  1  0
  7  2  1  0
  9  8  2  0
 10  1  1  0
 10  9  1  0
 11  9  1  0
 12 11  1  0
 13 12  1  0
 14 12  1  0
 15 12  1  0
 16  1  1  0
 17 16  2  0
 18 16  1  0
  1 19  1  6
  2 20  1  0
  3 21  1  0
  3 22  1  0
  4 23  1  0
  4 24  1  0
  6 25  1  0
  6 26  1  0
  7 27  1  0
  7 28  1  0
 10 29  1  0
 13 30  1  0
 13 31  1  0
 13 32  1  0
 14 33  1  0
 14 34  1  0
 14 35  1  0
 15 36  1  0
 15 37  1  0
 15 38  1  0
M  CHG  1  18  -1
M  END
$$$$
=
     RDKit          3D

 20 21  0  0  0  0  0  0  0  0999 V2000
   20.0650   15.6130    4.7800 N   0  0  0  0  0  0  0  0  0  0  0  0
   19.5980   15.4080    3.5230 N   0  0  0  0  0  0  0  0  0  0  0  0
   18.2860   15.6180    3.5400 N   0  0  0  0  0  0  0  0  0  0  0  0
   17.9430   15.9830    4.8070 C   0  0  0  0  0  0  0  0  0  0  0  0
   19.0530   16.0010    5.6110 C   0  0  0  0  0  0  0  0  0  0  0  0
   16.5080   16.3180    5.2620 C   0  0  0  0  0  0  0  0  0  0  0  0
   15.8730   15.4900    6.3490 C   0  0  0  0  0  0  0  0  0  0  0  0
   15.3870   15.3640    4.9340 C   0  0  0  0  0  0  0  0  0  0  0  0
   21.4830   15.5090    5.0300 C   0  0  0  0  0  0  0  0  0  0  0  0
   22.5600   17.0230    6.4710 O   0  0  0  0  0  1  0  0  0  0  0  0
   22.1090   16.8560    5.2990 C   0  0  0  0  0  0  0  0  0  0  0  0
   22.0910   17.6750    4.3360 O   0  0  0  0  0  0  0  0  0  0  0  0
   19.1144   16.2661    6.6768 H   0  0  0  0  0  0  0  0  0  0  0  0
   16.6877   17.3913    5.1018 H   0  0  0  0  0  0  0  0  0  0  0  0
   16.4360   14.6662    6.8121 H   0  0  0  0  0  0  0  0  0  0  0  0
   15.3985   15.7106    7.3166 H   0  0  0  0  0  0  0  0  0  0  0  0
   15.5944   14.4482    4.3610 H   0  0  0  0  0  0  0  0  0  0  0  0
   14.4100   15.4543    4.4368 H   0  0  0  0  0  0  0  0  0  0  0  0
   21.6430   14.8617    5.9049 H   0  0  0  0  0  0  0  0  0  0  0  0
   21.9568   15.0870    4.1315 H   0  0  0  0  0  0  0  0  0  0  0  0
  2  1  1  0
  3  2  2  0
  4  3  1  0
  5  4  2  0
  5  1  1  0
  6  4  1  0
  7  6  1  0
  8  7  1  0
  8  6  1  0
  9  1  1  0
 11  9  1  0
 11 10  1  0
 12 11  2  0
  5 13  1  0
  6 14  1  0
  7 15  1  0
  7 16  1  0
  8 17  1  0
  8 18  1  0
  9 19  1  0
  9 20  1  0
M  CHG  1  10  -1
M  END
$$$$
=
     RDKit          3D

 23 24  0  0  0  0  0  0  0  0999 V2000
   19.2180   15.9500    4.9080 N   0  0  0  0  0  0  0  0  0  0  0  0
   19.7880   15.0440    4.0490 C   0  0  0  0  0  0  0  0  0  0  0  0
   18.8860   14.3400    3.3990 N   0  0  0  0  0  0  0  0  0  0  0  0
   17.6790   14.8190    3.8440 C   0  0  0  0  0  0  0  0  0  0  0  0
   17.8500   15.8240    4.7940 C   0  0  0  0  0  0  0  0  0  0  0  0
   16.7690   16.4670    5.4110 C   0  0  0  0  0  0  0  0  0  0  0  0
   15.4820   16.0640    5.0330 C   0  0  0  0  0  0  0  0  0  0  0  0
   15.2880   15.0600    4.0840 C   0  0  0  0  0  0  0  0  0  0  0  0
   16.3810   14.4260    3.4800 C   0  0  0  0  0  0  0  0  0  0  0  0
   19.9280   16.8020    5.8550 C   0  0  1  0  0  0  0  0  0  0  0  0
   21.3120   16.2400    6.1660 C   0  0  0  0  0  0  0  0  0  0  0  0
   19.2020   19.0670    5.9100 O   0  0  0  0  0  1  0  0  0  0  0  0
   19.9760   18.2430    5.3400 C   0  0  0  0  0  0  0  0  0  0  0  0
   20.7700   18.4420    4.3750 O   0  0  0  0  0  0  0  0  0  0  0  0
   20.8733   14.9206    3.9189 H   0  0  0  0  0  0  0  0  0  0  0  0
   16.9246   17.2560    6.1615 H   0  0  0  0  0  0  0  0  0  0  0  0
   14.6079   16.5481    5.4930 H   0  0  0  0  0  0  0  0  0  0  0  0
   14.2656   14.7632    3.8072 H   0  0  0  0  0  0  0  0  0  0  0  0
   16.2253   13.6336    2.7331 H   0  0  0  0  0  0  0  0  0  0  0  0
   19.3779   16.8158    6.8075 H   0  0  0  0  0  0  0  0  0  0  0  0
   21.4487   16.1845    7.2561 H   0  0  0  0  0  0  0  0  0  0  0  0
   21.4046   15.2330    5.7331 H   0  0  0  0  0  0  0  0  0  0  0  0
   22.0804   16.8973    5.7331 H   0  0  0  0  0  0  0  0  0  0  0  0
  2  1  1  0
  3  2  2  0
  4  3  1  0
  5  4  2  0
  5  1  1  0
  6  5  1  0
  7  6  2  0
  8  7  1  0
  9  8  2  0
  9  4  1  0
 10  1  1  0
 11 10  1  0
 13 12  1  0
 13 10  1  0
 14 13  2  0
  2 15  1  0
  6 16  1  0
  7 17  1  0
  8 18  1  0
  9 19  1  0
 10 20  1  1
 11 21  1  0
 11 22  1  0
 11 23  1  0
M  CHG  1  12  -1
M  END
$$$$
=
     RDKit          3D

 32 34  0  0  0  0  0  0  0  0999 V2000
   19.0650   14.9670    4.4730 C   0  0  1  0  0  0  0  0  0  0  0  0
   17.6570   14.5550    4.3340 N   0  0  0  0  0  0  0  0  0  0  0  0
   16.5510   15.3500    4.8450 C   0  0  0  0  0  0  0  0  0  0  0  0
   15.3560   14.6430    4.2930 C   0  0  0  0  0  0  0  0  0  0  0  0
   15.7660   13.5740    3.5000 C   0  0  0  0  0  0  0  0  0  0  0  0
   17.2340   13.5330    3.5000 C   0  0  0  0  0  0  0  0  0  0  0  0
   17.8850   12.7250    2.8640 O   0  0  0  0  0  0  0  0  0  0  0  0
   14.8730   12.7430    2.8490 C   0  0  0  0  0  0  0  0  0  0  0  0
   13.5120   13.0070    3.0150 C   0  0  0  0  0  0  0  0  0  0  0  0
   13.0850   14.0830    3.8150 C   0  0  0  0  0  0  0  0  0  0  0  0
   14.0100   14.9120    4.4610 C   0  0  0  0  0  0  0  0  0  0  0  0
   19.2840   16.2380    3.6910 C   0  0  0  0  0  0  0  0  0  0  0  0
   19.2170   17.5680    4.0600 C   0  0  0  0  0  0  0  0  0  0  0  0
   19.4990   18.3270    2.9010 C   0  0  0  0  0  0  0  0  0  0  0  0
   19.7190   17.4170    1.8950 C   0  0  0  0  0  0  0  0  0  0  0  0
   19.5880   16.1470    2.3590 O   0  0  0  0  0  0  0  0  0  0  0  0
   19.4700   15.1240    5.9330 C   0  0  0  0  0  0  0  0  0  0  0  0
   21.7080   15.0690    5.1420 O   0  0  0  0  0  1  0  0  0  0  0  0
   20.9660   15.3230    6.1290 C   0  0  0  0  0  0  0  0  0  0  0  0
   21.2890   15.6950    7.2930 O   0  0  0  0  0  0  0  0  0  0  0  0
   19.7109   14.1767    4.0629 H   0  0  0  0  0  0  0  0  0  0  0  0
   16.5382   15.3512    5.9449 H   0  0  0  0  0  0  0  0  0  0  0  0
   16.6042   16.4096    4.5545 H   0  0  0  0  0  0  0  0  0  0  0  0
   15.2211   11.9068    2.2249 H   0  0  0  0  0  0  0  0  0  0  0  0
   12.7676   12.3688    2.5164 H   0  0  0  0  0  0  0  0  0  0  0  0
   12.0086   14.2756    3.9346 H   0  0  0  0  0  0  0  0  0  0  0  0
   13.6754   15.7539    5.0849 H   0  0  0  0  0  0  0  0  0  0  0  0
   18.9884   17.9604    5.0619 H   0  0  0  0  0  0  0  0  0  0  0  0
   19.5350   19.4235    2.8208 H   0  0  0  0  0  0  0  0  0  0  0  0
   19.9672   17.6808    0.8563 H   0  0  0  0  0  0  0  0  0  0  0  0
   18.9451   15.9970    6.3482 H   0  0  0  0  0  0  0  0  0  0  0  0
   19.1973   14.1905    6.4470 H   0  0  0  0  0  0  0  0  0  0  0  0
  2  1  1  0
  3  2  1  0
  4  3  1  0
  5  4  2  0
  6  5  1  0
  6  2  1  0
  7  6  2  0
  8  5  1  0
  9  8  2  0
 10  9  1  0
 11 10  2  0
 11  4  1  0
 12  1  1  0
 13 12  2  0
 14 13  1  0
 15 14  2  0
 16 12  1  0
 16 15  1  0
 17  1  1  0
 19 18  1  0
 19 17  1  0
 20 19  2  0
  1 21  1  6
  3 22  1  0
  3 23  1  0
  8 24  1  0
  9 25  1  0
 10 26  1  0
 11 27  1  0
 13 28  1  0
 14 29  1  0
 15 30  1  0
 17 31  1  0
 17 32  1  0
M  CHG  1  18  -1
M  END
$$$$
=
     RDKit          3D

 38 40  0  0  0  0  0  0  0  0999 V2000
   16.6570   16.8890    5.6240 C   0  0  0  0  0  0  0  0  0  0  0  0
   16.4530   15.5830    4.8830 C   0  0  0  0  0  0  0  0  0  0  0  0
   15.2190   15.2710    4.6300 N   0  0  0  0  0  0  0  0  0  0  0  0
   14.9880   14.1430    3.9030 C   0  0  0  0  0  0  0  0  0  0  0  0
   13.8410   13.5110    3.4800 C   0  0  0  0  0  0  0  0  0  0  0  0
   14.2690   12.4130    2.7270 C   0  0  0  0  0  0  0  0  0  0  0  0
   15.5990   12.3190    2.6600 N   0  0  0  0  0  0  0  0  0  0  0  0
   16.0440   13.3770    3.3990 N   0  0  0  0  0  0  0  0  0  0  0  0
   17.3860   13.7040    3.6800 C   0  0  0  0  0  0  0  0  0  0  0  0
   17.6670   14.7670    4.4750 C   0  0  0  0  0  0  0  0  0  0  0  0
   18.4180   12.8030    3.0640 C   0  0  0  0  0  0  0  0  0  0  0  0
   12.3400   13.8490    3.7110 C   0  0  0  0  0  0  0  0  0  0  0  0
   12.0410   14.7770    4.5210 O   0  0  0  0  0  0  0  0  0  0  0  0
   11.5170   13.1380    3.0490 O   0  0  0  0  0  1  0  0  0  0  0  0
   19.0290   15.1810    4.9770 C   0  0  0  0  0  0  0  0  0  0  0  0
   19.7510   16.2630    4.1820 C   0  0  0  0  0  0  0  0  0  0  0  0
   19.2680   16.5690    2.8930 C   0  0  0  0  0  0  0  0  0  0  0  0
   19.8740   17.5480    2.1060 C   0  0  0  0  0  0  0  0  0  0  0  0
   20.9700   18.2460    2.5950 C   0  0  0  0  0  0  0  0  0  0  0  0
   21.4500   17.9740    3.8750 C   0  0  0  0  0  0  0  0  0  0  0  0
   20.8430   17.0020    4.6890 C   0  0  0  0  0  0  0  0  0  0  0  0
   21.4160   16.7690    6.0610 C   0  0  0  0  0  0  0  0  0  0  0  0
   16.6281   16.7040    6.7079 H   0  0  0  0  0  0  0  0  0  0  0  0
   17.6329   17.3169    5.3510 H   0  0  0  0  0  0  0  0  0  0  0  0
   15.8581   17.5941    5.3510 H   0  0  0  0  0  0  0  0  0  0  0  0
   13.5832   11.7028    2.2419 H   0  0  0  0  0  0  0  0  0  0  0  0
   18.9903   12.3034    3.8595 H   0  0  0  0  0  0  0  0  0  0  0  0
   17.9190   12.0463    2.4407 H   0  0  0  0  0  0  0  0  0  0  0  0
   19.1004   13.3995    2.4407 H   0  0  0  0  0  0  0  0  0  0  0  0
   18.9073   15.5488    6.0065 H   0  0  0  0  0  0  0  0  0  0  0  0
   19.6578   14.2835    4.8815 H   0  0  0  0  0  0  0  0  0  0  0  0
   18.3962   16.0249    2.5006 H   0  0  0  0  0  0  0  0  0  0  0  0
   19.4847   17.7665    1.1007 H   0  0  0  0  0  0  0  0  0  0  0  0
   21.4582   19.0115    1.9740 H   0  0  0  0  0  0  0  0  0  0  0  0
   22.3196   18.5301    4.2551 H   0  0  0  0  0  0  0  0  0  0  0  0
   20.6798   17.0684    6.8215 H   0  0  0  0  0  0  0  0  0  0  0  0
   21.6552   15.7022    6.1821 H   0  0  0  0  0  0  0  0  0  0  0  0
   22.3318   17.3662    6.1821 H   0  0  0  0  0  0  0  0  0  0  0  0
  2  1  1  0
  3  2  2  0
  4  3  1  0
  5  4  2  0
  6  5  1  0
  7  6  2  0
  8  7  1  0
  8  4  1  0
  9  8  1  0
 10  9  2  0
 10  2  1  0
 11  9  1  0
 12  5  1  0
 13 12  2  0
 14 12  1  0
 15 10  1  0
 16 15  1  0
 17 16  2  0
 18 17  1  0
 19 18  2  0
 20 19  1  0
 21 16  1  0
 21 20  2  0
 22 21  1  0
  1 23  1  0
  1 24  1  0
  1 25  1  0
  6 26  1  0
 11 27  1  0
 11 28  1  0
 11 29  1  0
 15 30  1  0
 15 31  1  0
 17 32  1  0
 18 33  1  0
 19 34  1  0
 20 35  1  0
 22 36  1  0
 22 37  1  0
 22 38  1  0
M  CHG  1  14  -1
M  END
$$$$
=
     RDKit          3D

 42 44  0  0  0  0  0  0  0  0999 V2000
   16.5290   15.5210    5.1840 C   0  0  0  0  0  0  0  0  0  0  0  0
   16.4910   15.1730    3.8380 C   0  0  0  0  0  0  0  0  0  0  0  0
   15.3440   14.5580    3.3140 C   0  0  0  0  0  0  0  0  0  0  0  0
   14.2170   14.2860    4.1120 C   0  0  0  0  0  0  0  0  0  0  0  0
   14.2910   14.6600    5.4670 C   0  0  0  0  0  0  0  0  0  0  0  0
   15.4310   15.2750    6.0020 C   0  0  0  0  0  0  0  0  0  0  0  0
   13.0500   13.6530    3.5700 N   0  0  0  0  0  0  0  0  0  0  0  0
   13.0640   12.5200    2.7810 C   0  0  0  0  0  0  0  0  0  0  0  0
   14.0110   11.8950    2.3220 O   0  0  0  0  0  0  0  0  0  0  0  0
   11.6550   12.0830    2.5260 C   0  0  0  0  0  0  0  0  0  0  0  0
   10.8270   13.2720    2.9290 C   0  0  0  0  0  0  0  0  0  0  0  0
   11.7570   14.0890    3.7730 C   0  0  0  0  0  0  0  0  0  0  0  0
   11.3310   14.9830    4.4920 O   0  0  0  0  0  0  0  0  0  0  0  0
   17.9700   16.3090    5.8750 S   0  0  0  0  0  6  0  0  0  0  0  0
   18.5030   15.3760    6.8470 O   0  0  0  0  0  0  0  0  0  0  0  0
   17.5930   17.6510    6.2570 O   0  0  0  0  0  0  0  0  0  0  0  0
   21.7550   17.4540    4.6250 C   0  0  0  0  0  0  0  0  0  0  0  0
   20.5300   18.3710    4.6200 C   0  0  0  0  0  0  0  0  0  0  0  0
   19.3370   17.7000    3.9560 C   0  0  0  0  0  0  0  0  0  0  0  0
   19.0190   16.3710    4.5430 N   0  0  0  0  0  0  0  0  0  0  0  0
   20.2040   15.4750    4.5990 C   0  0  0  0  0  0  0  0  0  0  0  0
   21.3880   16.1280    5.2960 C   0  0  0  0  0  0  0  0  0  0  0  0
   23.2470   17.7710    6.4410 O   0  0  0  0  0  1  0  0  0  0  0  0
   22.9770   18.1380    5.2620 C   0  0  0  0  0  0  0  0  0  0  0  0
   23.5390   19.0230    4.5580 O   0  0  0  0  0  0  0  0  0  0  0  0
   17.3546   15.3786    3.1885 H   0  0  0  0  0  0  0  0  0  0  0  0
   15.3250   14.2806    2.2497 H   0  0  0  0  0  0  0  0  0  0  0  0
   13.4306   14.4642    6.1238 H   0  0  0  0  0  0  0  0  0  0  0  0
   15.4574   15.5618    7.0636 H   0  0  0  0  0  0  0  0  0  0  0  0
   11.5058   11.8450    1.4625 H   0  0  0  0  0  0  0  0  0  0  0  0
   11.3869   11.1723    3.0817 H   0  0  0  0  0  0  0  0  0  0  0  0
   10.5004   13.8393    2.0450 H   0  0  0  0  0  0  0  0  0  0  0  0
    9.9083   12.9879    3.4631 H   0  0  0  0  0  0  0  0  0  0  0  0
   22.0551   17.2373    3.5891 H   0  0  0  0  0  0  0  0  0  0  0  0
   20.2671   18.6226    5.6581 H   0  0  0  0  0  0  0  0  0  0  0  0
   20.7788   19.2780    4.0495 H   0  0  0  0  0  0  0  0  0  0  0  0
   18.4591   18.3529    4.0697 H   0  0  0  0  0  0  0  0  0  0  0  0
   19.5947   17.5404    2.8986 H   0  0  0  0  0  0  0  0  0  0  0  0
   19.9310   14.5610    5.1467 H   0  0  0  0  0  0  0  0  0  0  0  0
   20.5045   15.2488    3.5653 H   0  0  0  0  0  0  0  0  0  0  0  0
   21.1271   16.3169    6.3478 H   0  0  0  0  0  0  0  0  0  0  0  0
   22.2518   15.4502    5.2296 H   0  0  0  0  0  0  0  0  0  0  0  0
  2  1  2  0
  3  2  1  0
  4  3  2  0
  5  4  1  0
  6  5  2  0
  6  1  1  0
  7  4  1  0
  8  7  1  0
  9  8  2  0
 10  8  1  0
 11 10  1  0
 12 11  1  0
 12  7  1  0
 13 12  2  0
 14  1  1  0
 15 14  2  0
 16 14  2  0
 18 17  1  0
 19 18  1  0
 20 14  1  0
 20 19  1  0
 21 20  1  0
 22 21  1  0
 22 17  1  0
 24 17  1  0
 24 23  1  0
 25 24  2  0
  2 26  1  0
  3 27  1  0
  5 28  1  0
  6 29  1  0
 10 30  1  0
 10 31  1  0
 11 32  1  0
 11 33  1  0
 17 34  1  0
 18 35  1  0
 18 36  1  0
 19 37  1  0
 19 38  1  0
 21 39  1  0
 21 40  1  0
 22 41  1  0
 22 42  1  0
M  CHG  1  23  -1
M  END
$$$$
=
     RDKit          3D

 45 44  0  0  0  0  0  0  0  0999 V2000
   18.2830   16.1510    5.6290 N   0  0  0  0  0  0  0  0  0  0  0  0
   17.4100   15.7850    4.6430 C   0  0  0  0  0  0  0  0  0  0  0  0
   17.7180   15.6760    3.4550 O   0  0  0  0  0  0  0  0  0  0  0  0
   15.9670   15.5290    5.1240 C   0  0  2  0  0  0  0  0  0  0  0  0
   15.9100   15.3680    6.6380 C   0  0  0  0  0  0  0  0  0  0  0  0
   15.5060   14.3160    4.4510 N   0  0  0  0  0  0  0  0  0  0  0  0
   14.1890   14.0680    4.1580 C   0  0  0  0  0  0  0  0  0  0  0  0
   13.2850   14.8210    4.5110 O   0  0  0  0  0  0  0  0  0  0  0  0
   13.9310   12.7780    3.3580 C   0  0  0  0  0  0  0  0  0  0  0  0
   12.5840   12.8740    2.6290 C   0  0  0  0  0  0  0  0  0  0  0  0
   13.8860   11.5790    4.3220 C   0  0  0  0  0  0  0  0  0  0  0  0
   15.0650   12.5530    2.3460 C   0  0  0  0  0  0  0  0  0  0  0  0
   19.7450   16.2920    5.4530 C   0  0  2  0  0  0  0  0  0  0  0  0
   20.5080   15.3950    6.4910 C   0  0  0  0  0  0  0  0  0  0  0  0
   19.9830   14.2480    6.6510 O   0  0  0  0  0  0  0  0  0  0  0  0
   21.5370   15.8950    7.0210 O   0  0  0  0  0  1  0  0  0  0  0  0
   20.1730   17.7630    5.5910 C   0  0  0  0  0  0  0  0  0  0  0  0
   20.6150   18.4000    4.2670 C   0  0  0  0  0  0  0  0  0  0  0  0
   23.0070   18.4400    5.0560 C   0  0  0  0  0  0  0  0  0  0  0  0
   22.0710   18.1030    3.9060 C   0  0  0  0  0  0  0  0  0  0  0  0
   17.8943   16.3427    6.5634 H   0  0  0  0  0  0  0  0  0  0  0  0
   15.3197   16.3837    4.8780 H   0  0  0  0  0  0  0  0  0  0  0  0
   16.2402   16.3007    7.1186 H   0  0  0  0  0  0  0  0  0  0  0  0
   14.8777   15.1433    6.9442 H   0  0  0  0  0  0  0  0  0  0  0  0
   16.5710   14.5438    6.9442 H   0  0  0  0  0  0  0  0  0  0  0  0
   16.2068   13.6105    4.1827 H   0  0  0  0  0  0  0  0  0  0  0  0
   11.7708   12.9320    3.3674 H   0  0  0  0  0  0  0  0  0  0  0  0
   12.5717   13.7753    1.9985 H   0  0  0  0  0  0  0  0  0  0  0  0
   12.4440   11.9836    1.9985 H   0  0  0  0  0  0  0  0  0  0  0  0
   13.8996   11.9425    5.3601 H   0  0  0  0  0  0  0  0  0  0  0  0
   12.9656   11.0025    4.1474 H   0  0  0  0  0  0  0  0  0  0  0  0
   14.7606   10.9351    4.1474 H   0  0  0  0  0  0  0  0  0  0  0  0
   16.0056   12.3664    2.8849 H   0  0  0  0  0  0  0  0  0  0  0  0
   14.8258   11.6848    1.7143 H   0  0  0  0  0  0  0  0  0  0  0  0
   15.1754   13.4467    1.7143 H   0  0  0  0  0  0  0  0  0  0  0  0
   20.0061   15.9545    4.4391 H   0  0  0  0  0  0  0  0  0  0  0  0
   19.3222   18.3373    5.9864 H   0  0  0  0  0  0  0  0  0  0  0  0
   21.0415   17.7847    6.2657 H   0  0  0  0  0  0  0  0  0  0  0  0
   19.9709   18.0149    3.4627 H   0  0  0  0  0  0  0  0  0  0  0  0
   20.5258   19.4900    4.3855 H   0  0  0  0  0  0  0  0  0  0  0  0
   22.4947   18.2556    6.0118 H   0  0  0  0  0  0  0  0  0  0  0  0
   23.9059   17.8091    4.9941 H   0  0  0  0  0  0  0  0  0  0  0  0
   23.2974   19.4992    4.9941 H   0  0  0  0  0  0  0  0  0  0  0  0
   22.1694   17.0341    3.6658 H   0  0  0  0  0  0  0  0  0  0  0  0
   22.3471   18.7241    3.0412 H   0  0  0  0  0  0  0  0  0  0  0  0
  2  1  1  0
  3  2  2  0
  4  2  1  0
  5  4  1  0
  6  4  1  0
  7  6  1  0
  8  7  2  0
  9  7  1  0
 10  9  1  0
 11  9  1  0
 12  9  1  0
 13  1  1  0
 14 13  1  0
 15 14  2  0
 16 14  1  0
 17 13  1  0
 18 17  1  0
 20 18  1  0
 20 19  1  0
  1 21  1  0
  4 22  1  1
  5 23  1  0
  5 24  1  0
  5 25  1  0
  6 26  1  0
 10 27  1  0
 10 28  1  0
 10 29  1  0
 11 30  1  0
 11 31  1  0
 11 32  1  0
 12 33  1  0
 12 34  1  0
 12 35  1  0
 13 36  1  6
 17 37  1  0
 17 38  1  0
 18 39  1  0
 18 40  1  0
 19 41  1  0
 19 42  1  0
 19 43  1  0
 20 44  1  0
 20 45  1  0
M  CHG  1  16  -1
M  END
$$$$
=
     RDKit          3D

 19 18  0  0  0  0  0  0  0  0999 V2000
   20.8950   17.8180    5.1640 N   0  0  0  0  0  0  0  0  0  0  0  0
   22.0320   17.5270    5.8410 C   0  0  0  0  0  0  0  0  0  0  0  0
   22.2240   16.5790    6.5880 O   0  0  0  0  0  0  0  0  0  0  0  0
   22.9930   18.4670    5.6360 N   0  0  0  0  0  0  0  0  0  0  0  0
   19.7380   16.8970    5.0780 C   0  0  2  0  0  0  0  0  0  0  0  0
   19.6490   16.2790    3.6350 C   0  0  0  0  0  0  0  0  0  0  0  0
   19.5310   17.1520    2.7140 O   0  0  0  0  0  0  0  0  0  0  0  0
   19.7110   15.0220    3.5430 O   0  0  0  0  0  1  0  0  0  0  0  0
   17.3230   16.6750    5.8620 C   0  0  0  0  0  0  0  0  0  0  0  0
   18.4480   17.6260    5.4750 C   0  0  0  0  0  0  0  0  0  0  0  0
   20.8318   18.7272    4.6840 H   0  0  0  0  0  0  0  0  0  0  0  0
   23.9119   18.3719    6.0914 H   0  0  0  0  0  0  0  0  0  0  0  0
   22.8020   19.2741    5.0253 H   0  0  0  0  0  0  0  0  0  0  0  0
   19.8754   16.0669    5.7866 H   0  0  0  0  0  0  0  0  0  0  0  0
   17.2534   16.6162    6.9582 H   0  0  0  0  0  0  0  0  0  0  0  0
   16.3717   17.0469    5.4536 H   0  0  0  0  0  0  0  0  0  0  0  0
   17.5314   15.6751    5.4536 H   0  0  0  0  0  0  0  0  0  0  0  0
   18.6646   18.2803    6.3323 H   0  0  0  0  0  0  0  0  0  0  0  0
   18.1093   18.1974    4.5982 H   0  0  0  0  0  0  0  0  0  0  0  0
  2  1  1  0
  3  2  2  0
  4  2  1  0
  5  1  1  0
  6  5  1  0
  7  6  2  0
  8  6  1  0
 10  5  1  0
 10  9  1  0
  1 11  1  0
  4 12  1  0
  4 13  1  0
  5 14  1  1
  9 15  1  0
  9 16  1  0
  9 17  1  0
 10 18  1  0
 10 19  1  0
M  CHG  1   8  -1
M  END
$$$$
=
     RDKit          3D

 36 36  0  0  0  0  0  0  0  0999 V2000
   18.1580   15.5000    5.7640 N   0  0  0  0  0  0  0  0  0  0  0  0
   17.2000   16.4470    5.9560 C   0  0  0  0  0  0  0  0  0  0  0  0
   17.3700   17.6520    6.0840 O   0  0  0  0  0  0  0  0  0  0  0  0
   19.4550   15.8500    5.1370 C   0  0  2  0  0  0  0  0  0  0  0  0
   19.4680   15.3820    3.6340 C   0  0  0  0  0  0  0  0  0  0  0  0
   19.2460   14.1390    3.4690 O   0  0  0  0  0  0  0  0  0  0  0  0
   19.6460   16.2790    2.7620 O   0  0  0  0  0  1  0  0  0  0  0  0
   20.5820   15.1410    5.9090 C   0  0  0  0  0  0  0  0  0  0  0  0
   21.7900   16.0460    6.1920 C   0  0  0  0  0  0  0  0  0  0  0  0
   21.5160   17.5160    5.8640 C   0  0  0  0  0  0  0  0  0  0  0  0
   23.5740   18.4690    5.2210 O   0  0  0  0  0  1  0  0  0  0  0  0
   22.3930   18.2290    4.8280 C   0  0  0  0  0  0  0  0  0  0  0  0
   21.8740   18.4670    3.7030 O   0  0  0  0  0  0  0  0  0  0  0  0
   15.9850   15.8410    5.9840 O   0  0  0  0  0  0  0  0  0  0  0  0
   15.1840   16.1370    4.8430 C   0  0  0  0  0  0  0  0  0  0  0  0
   14.7680   14.8460    4.1740 C   0  0  0  0  0  0  0  0  0  0  0  0
   13.4480   14.3840    4.2660 C   0  0  0  0  0  0  0  0  0  0  0  0
   13.0620   13.2070    3.6210 C   0  0  0  0  0  0  0  0  0  0  0  0
   13.9900   12.4830    2.8730 C   0  0  0  0  0  0  0  0  0  0  0  0
   15.3030   12.9380    2.7670 C   0  0  0  0  0  0  0  0  0  0  0  0
   15.6900   14.1140    3.4110 C   0  0  0  0  0  0  0  0  0  0  0  0
   17.9800   14.5289    6.0576 H   0  0  0  0  0  0  0  0  0  0  0  0
   19.6023   16.9396    5.1701 H   0  0  0  0  0  0  0  0  0  0  0  0
   20.1782   14.7879    6.8694 H   0  0  0  0  0  0  0  0  0  0  0  0
   20.9372   14.3131    5.2778 H   0  0  0  0  0  0  0  0  0  0  0  0
   22.0480   15.9654    7.2583 H   0  0  0  0  0  0  0  0  0  0  0  0
   22.6155   15.7098    5.5474 H   0  0  0  0  0  0  0  0  0  0  0  0
   20.4788   17.5764    5.5027 H   0  0  0  0  0  0  0  0  0  0  0  0
   21.7444   18.0399    6.8039 H   0  0  0  0  0  0  0  0  0  0  0  0
   14.2883   16.6929    5.1573 H   0  0  0  0  0  0  0  0  0  0  0  0
   15.7634   16.7480    4.1352 H   0  0  0  0  0  0  0  0  0  0  0  0
   12.7102   14.9529    4.8508 H   0  0  0  0  0  0  0  0  0  0  0  0
   12.0246   12.8505    3.7031 H   0  0  0  0  0  0  0  0  0  0  0  0
   13.6862   11.5544    2.3676 H   0  0  0  0  0  0  0  0  0  0  0  0
   16.0353   12.3694    2.1749 H   0  0  0  0  0  0  0  0  0  0  0  0
   16.7268   14.4700    3.3196 H   0  0  0  0  0  0  0  0  0  0  0  0
  2  1  1  0
  3  2  2  0
  4  1  1  0
  5  4  1  0
  6  5  2  0
  7  5  1  0
  8  4  1  0
  9  8  1  0
 10  9  1  0
 12 10  1  0
 12 11  1  0
 13 12  2  0
 14  2  1  0
 15 14  1  0
 16 15  1  0
 17 16  2  0
 18 17  1  0
 19 18  2  0
 20 19  1  0
 21 20  2  0
 21 16  1  0
  1 22  1  0
  4 23  1  6
  8 24  1  0
  8 25  1  0
  9 26  1  0
  9 27  1  0
 10 28  1  0
 10 29  1  0
 15 30  1  0
 15 31  1  0
 17 32  1  0
 18 33  1  0
 19 34  1  0
 20 35  1  0
 21 36  1  0
M  CHG  2   7  -1  11  -1
M  END
$$$$
=
     RDKit          3D

 28 29  0  0  0  0  0  0  0  0999 V2000
   17.5340   15.4500    4.1440 N   0  0  0  0  0  0  0  0  0  0  0  0
   18.8770   15.3440    3.8940 C   0  0  0  0  0  0  0  0  0  0  0  0
   19.1250   14.2460    3.2170 N   0  0  0  0  0  0  0  0  0  0  0  0
   17.9340   13.5810    3.0530 N   0  0  0  0  0  0  0  0  0  0  0  0
   16.9890   14.2780    3.6580 C   0  0  0  0  0  0  0  0  0  0  0  0
   15.6160   13.8640    3.6770 C   0  0  0  0  0  0  0  0  0  0  0  0
   14.5610   14.5940    4.1920 C   0  0  0  0  0  0  0  0  0  0  0  0
   13.3080   13.9320    4.0400 C   0  0  0  0  0  0  0  0  0  0  0  0
   13.4430   12.7290    3.3870 C   0  0  0  0  0  0  0  0  0  0  0  0
   15.0670   12.4130    2.9550 S   0  0  0  0  0  0  0  0  0  0  0  0
   16.8190   16.5870    4.6950 C   0  0  0  0  0  0  0  0  0  0  0  0
   16.6780   15.5950    7.0130 C   0  0  0  0  0  0  0  0  0  0  0  0
   16.9180   16.6320    6.2010 C   0  0  0  0  0  0  0  0  0  0  0  0
   20.0690   16.5250    4.3170 S   0  0  0  0  0  0  0  0  0  0  0  0
   21.3570   15.4440    5.0250 C   0  0  0  0  0  0  0  0  0  0  0  0
   21.6590   15.9980    6.4190 C   0  0  0  0  0  0  0  0  0  0  0  0
   21.0360   15.4480    7.3750 O   0  0  0  0  0  0  0  0  0  0  0  0
   22.5000   16.9420    6.4660 O   0  0  0  0  0  1  0  0  0  0  0  0
   14.6761   15.5792    4.6676 H   0  0  0  0  0  0  0  0  0  0  0  0
   12.3498   14.3341    4.4009 H   0  0  0  0  0  0  0  0  0  0  0  0
   12.6053   12.0504    3.1685 H   0  0  0  0  0  0  0  0  0  0  0  0
   17.2475   17.5120    4.2817 H   0  0  0  0  0  0  0  0  0  0  0  0
   15.7575   16.4890    4.4237 H   0  0  0  0  0  0  0  0  0  0  0  0
   16.7739   15.7156    8.1022 H   0  0  0  0  0  0  0  0  0  0  0  0
   16.3849   14.6224    6.5910 H   0  0  0  0  0  0  0  0  0  0  0  0
   17.2085   17.5863    6.6647 H   0  0  0  0  0  0  0  0  0  0  0  0
   20.9897   14.4096    5.0969 H   0  0  0  0  0  0  0  0  0  0  0  0
   22.2588   15.4288    4.3953 H   0  0  0  0  0  0  0  0  0  0  0  0
  2  1  1  0
  3  2  2  0
  4  3  1  0
  5  4  2  0
  5  1  1  0
  6  5  1  0
  7  6  2  0
  8  7  1  0
  9  8  2  0
 10  9  1  0
 10  6  1  0
 11  1  1  0
 13 12  2  3
 13 11  1  0
 14  2  1  0
 15 14  1  0
 16 15  1  0
 17 16  2  0
 18 16  1  0
  7 19  1  0
  8 20  1  0
  9 21  1  0
 11 22  1  0
 11 23  1  0
 12 24  1  0
 12 25  1  0
 13 26  1  0
 15 27  1  0
 15 28  1  0
M  CHG  1  18  -1
M  END
$$$$
=
     RDKit          3D

 34 34  0  0  0  0  0  0  0  0999 V2000
   17.9860   14.6740    3.4400 C   0  0  0  0  0  0  0  0  0  0  0  0
   18.8300   13.7860    3.3590 O   0  0  0  0  0  0  0  0  0  0  0  0
   18.2620   16.0210    3.4730 N   0  0  0  0  0  0  0  0  0  0  0  0
   13.8420   13.6490    3.9120 C   0  0  0  0  0  0  0  0  0  0  0  0
   14.4050   14.7070    4.6290 C   0  0  0  0  0  0  0  0  0  0  0  0
   15.7580   15.0260    4.4640 C   0  0  0  0  0  0  0  0  0  0  0  0
   16.5590   14.2950    3.5760 C   0  0  0  0  0  0  0  0  0  0  0  0
   15.9930   13.2320    2.8770 C   0  0  0  0  0  0  0  0  0  0  0  0
   14.6450   12.9110    3.0400 C   0  0  0  0  0  0  0  0  0  0  0  0
   16.7250   12.4620    2.0590 F   0  0  0  0  0  0  0  0  0  0  0  0
   11.9820   12.6700    2.8040 C   0  0  0  0  0  0  0  0  0  0  0  0
   12.5410   13.2350    3.9840 O   0  0  0  0  0  0  0  0  0  0  0  0
   19.6010   16.5560    3.7120 C   0  0  1  0  0  0  0  0  0  0  0  0
   19.9990   17.5550    2.6190 C   0  0  0  0  0  0  0  0  0  0  0  0
   19.7180   17.2000    5.1070 C   0  0  1  0  0  0  0  0  0  0  0  0
   18.3900   17.6170    5.7370 C   0  0  0  0  0  0  0  0  0  0  0  0
   20.4020   16.2090    6.0600 C   0  0  0  0  0  0  0  0  0  0  0  0
   21.5240   16.5790    6.5170 O   0  0  0  0  0  0  0  0  0  0  0  0
   19.7590   15.1440    6.2750 O   0  0  0  0  0  1  0  0  0  0  0  0
   17.4884   16.6841    3.3221 H   0  0  0  0  0  0  0  0  0  0  0  0
   13.7842   15.2907    5.3246 H   0  0  0  0  0  0  0  0  0  0  0  0
   16.1961   15.8572    5.0360 H   0  0  0  0  0  0  0  0  0  0  0  0
   14.2118   12.0707    2.4777 H   0  0  0  0  0  0  0  0  0  0  0  0
   11.2330   11.9129    3.0793 H   0  0  0  0  0  0  0  0  0  0  0  0
   11.5020   13.4618    2.2102 H   0  0  0  0  0  0  0  0  0  0  0  0
   12.7789   12.1984    2.2102 H   0  0  0  0  0  0  0  0  0  0  0  0
   20.3009   15.7081    3.6771 H   0  0  0  0  0  0  0  0  0  0  0  0
   20.3678   18.4807    3.0850 H   0  0  0  0  0  0  0  0  0  0  0  0
   20.7917   17.1181    1.9940 H   0  0  0  0  0  0  0  0  0  0  0  0
   19.1230   17.7829    1.9940 H   0  0  0  0  0  0  0  0  0  0  0  0
   20.3004   18.1212    4.9582 H   0  0  0  0  0  0  0  0  0  0  0  0
   18.4793   17.5890    6.8330 H   0  0  0  0  0  0  0  0  0  0  0  0
   18.1364   18.6380    5.4158 H   0  0  0  0  0  0  0  0  0  0  0  0
   17.5982   16.9242    5.4158 H   0  0  0  0  0  0  0  0  0  0  0  0
  2  1  2  0
  3  1  1  0
  5  4  2  0
  6  5  1  0
  7  6  2  0
  7  1  1  0
  8  7  1  0
  9  8  2  0
  9  4  1  0
 10  8  1  0
 12 11  1  0
 12  4  1  0
 13  3  1  0
 14 13  1  0
 15 13  1  0
 16 15  1  0
 17 15  1  0
 18 17  2  0
 19 17  1  0
  3 20  1  0
  5 21  1  0
  6 22  1  0
  9 23  1  0
 11 24  1  0
 11 25  1  0
 11 26  1  0
 13 27  1  1
 14 28  1  0
 14 29  1  0
 14 30  1  0
 15 31  1  6
 16 32  1  0
 16 33  1  0
 16 34  1  0
M  CHG  1  19  -1
M  END
$$$$
=
     RDKit          3D

 60 59  0  0  0  0  0  0  0  0999 V2000
   17.0130   13.8250    3.5070 C   0  0  0  0  0  0  0  0  0  0  0  0
   16.3260   15.9880    4.6890 C   0  0  0  0  0  0  0  0  0  0  0  0
   16.4100   15.1970    3.6040 C   0  0  0  0  0  0  0  0  0  0  0  0
   16.8240   15.7100    6.0780 C   0  0  0  0  0  0  0  0  0  0  0  0
   19.1780   14.7400    6.4270 C   0  0  0  0  0  0  0  0  0  0  0  0
   18.3180   15.7620    6.2660 C   0  0  0  0  0  0  0  0  0  0  0  0
   20.6770   14.8030    6.6040 C   0  0  0  0  0  0  0  0  0  0  0  0
   21.8280   16.9590    6.0120 C   0  0  0  0  0  0  0  0  0  0  0  0
   21.3870   15.7400    5.6630 C   0  0  0  0  0  0  0  0  0  0  0  0
   22.5230   17.9030    5.0750 C   0  0  0  0  0  0  0  0  0  0  0  0
   21.6250   18.2580    3.8880 C   0  0  0  0  0  0  0  0  0  0  0  0
   20.1400   18.3460    4.2560 C   0  0  0  0  0  0  0  0  0  0  0  0
   19.9370   17.4760    1.8990 C   0  0  0  0  0  0  0  0  0  0  0  0
   19.2190   17.6930    3.2240 C   0  0  0  0  0  0  0  0  0  0  0  0
   16.3130   12.9840    2.4760 C   0  0  0  0  0  0  0  0  0  0  0  0
   15.1370   12.3440    2.5910 C   0  0  0  0  0  0  0  0  0  0  0  0
   14.2060   12.3450    3.7710 C   0  0  0  0  0  0  0  0  0  0  0  0
   13.2520   13.5440    3.7640 C   0  0  0  0  0  0  0  0  0  0  0  0
   11.8270   13.1550    3.3760 C   0  0  0  0  0  0  0  0  0  0  0  0
   10.7810   13.9260    4.1570 C   0  0  0  0  0  0  0  0  0  0  0  0
   10.9650   15.0510    4.6100 O   0  0  0  0  0  0  0  0  0  0  0  0
    9.6220   13.2150    4.2990 N   0  0  0  0  0  0  0  0  0  0  0  0
    8.3910   13.7270    4.9060 C   0  0  0  0  0  0  0  0  0  0  0  0
    8.4720   13.7820    6.4550 C   0  0  0  0  0  0  0  0  0  0  0  0
    7.8470   14.7590    6.9760 O   0  0  0  0  0  0  0  0  0  0  0  0
    9.1420   12.8650    7.0040 O   0  0  0  0  0  1  0  0  0  0  0  0
   18.0733   13.9199    3.2301 H   0  0  0  0  0  0  0  0  0  0  0  0
   16.9046   13.3319    4.4843 H   0  0  0  0  0  0  0  0  0  0  0  0
   15.8310   16.9590    4.5401 H   0  0  0  0  0  0  0  0  0  0  0  0
   15.9853   15.6048    2.6748 H   0  0  0  0  0  0  0  0  0  0  0  0
   16.3737   16.4535    6.7522 H   0  0  0  0  0  0  0  0  0  0  0  0
   16.5334   14.6716    6.2953 H   0  0  0  0  0  0  0  0  0  0  0  0
   18.7346   13.7333    6.4302 H   0  0  0  0  0  0  0  0  0  0  0  0
   18.7641   16.7675    6.2725 H   0  0  0  0  0  0  0  0  0  0  0  0
   20.8862   15.1290    7.6335 H   0  0  0  0  0  0  0  0  0  0  0  0
   21.0569   13.7950    6.3812 H   0  0  0  0  0  0  0  0  0  0  0  0
   21.6700   17.2865    7.0502 H   0  0  0  0  0  0  0  0  0  0  0  0
   21.5542   15.4059    4.6284 H   0  0  0  0  0  0  0  0  0  0  0  0
   22.7816   18.8238    5.6184 H   0  0  0  0  0  0  0  0  0  0  0  0
   23.4308   17.4128    4.6933 H   0  0  0  0  0  0  0  0  0  0  0  0
   21.9438   19.2318    3.4880 H   0  0  0  0  0  0  0  0  0  0  0  0
   21.7298   17.4512    3.1476 H   0  0  0  0  0  0  0  0  0  0  0  0
   19.9902   17.8448    5.2237 H   0  0  0  0  0  0  0  0  0  0  0  0
   19.8779   19.4136    4.2959 H   0  0  0  0  0  0  0  0  0  0  0  0
   20.9738   17.1626    2.0908 H   0  0  0  0  0  0  0  0  0  0  0  0
   19.4181   16.6946    1.3245 H   0  0  0  0  0  0  0  0  0  0  0  0
   19.9378   18.4140    1.3245 H   0  0  0  0  0  0  0  0  0  0  0  0
   18.3489   18.3449    3.0572 H   0  0  0  0  0  0  0  0  0  0  0  0
   18.9033   16.7132    3.6118 H   0  0  0  0  0  0  0  0  0  0  0  0
   16.8265   12.8798    1.5088 H   0  0  0  0  0  0  0  0  0  0  0  0
   14.8189   11.7508    1.7210 H   0  0  0  0  0  0  0  0  0  0  0  0
   13.6106   11.4202    3.7515 H   0  0  0  0  0  0  0  0  0  0  0  0
   14.8199   12.4113    4.6813 H   0  0  0  0  0  0  0  0  0  0  0  0
   13.2350   13.9873    4.7706 H   0  0  0  0  0  0  0  0  0  0  0  0
   13.6195   14.2593    3.0134 H   0  0  0  0  0  0  0  0  0  0  0  0
   11.6860   13.3564    2.3038 H   0  0  0  0  0  0  0  0  0  0  0  0
   11.6973   12.0876    3.6078 H   0  0  0  0  0  0  0  0  0  0  0  0
    9.6137   12.2450    3.9527 H   0  0  0  0  0  0  0  0  0  0  0  0
    8.2059   14.7425    4.5259 H   0  0  0  0  0  0  0  0  0  0  0  0
    7.5746   13.0404    4.6376 H   0  0  0  0  0  0  0  0  0  0  0  0
  3  2  2  0
  3  1  1  0
  4  2  1  0
  6  5  2  0
  6  4  1  0
  7  5  1  0
  9  7  1  0
  9  8  2  0
 10  8  1  0
 11 10  1  0
 12 11  1  0
 14 13  1  0
 14 12  1  0
 15  1  1  0
 16 15  2  0
 17 16  1  0
 18 17  1  0
 19 18  1  0
 20 19  1  0
 21 20  2  0
 22 20  1  0
 23 22  1  0
 24 23  1  0
 25 24  2  0
 26 24  1  0
  1 27  1  0
  1 28  1  0
  2 29  1  0
  3 30  1  0
  4 31  1  0
  4 32  1  0
  5 33  1  0
  6 34  1  0
  7 35  1  0
  7 36  1  0
  8 37  1  0
  9 38  1  0
 10 39  1  0
 10 40  1  0
 11 41  1  0
 11 42  1  0
 12 43  1  0
 12 44  1  0
 13 45  1  0
 13 46  1  0
 13 47  1  0
 14 48  1  0
 14 49  1  0
 15 50  1  0
 16 51  1  0
 17 52  1  0
 17 53  1  0
 18 54  1  0
 18 55  1  0
 19 56  1  0
 19 57  1  0
 22 58  1  0
 23 59  1  0
 23 60  1  0
M  CHG  1  26  -1
M  END
$$$$
=
     RDKit          3D

 41 43  0  0  0  0  0  0  0  0999 V2000
   24.9190   24.7600   14.2140 C   0  0  0  0  0  0  0  0  0  0  0  0
   24.6270   23.6650   14.7100 O   0  0  0  0  0  0  0  0  0  0  0  0
   26.0230   24.9030   13.3710 N   0  0  0  0  0  0  0  0  0  0  0  0
   26.1840   26.0280   12.4430 C   0  0  0  0  0  0  0  0  0  0  0  0
   27.6270   26.2200   11.9460 C   0  0  2  0  0  0  0  0  0  0  0  0
   28.1720   24.9170   11.3800 C   0  0  0  0  0  0  0  0  0  0  0  0
   28.1570   23.8940   12.5120 C   0  0  2  0  0  0  0  0  0  0  0  0
   26.7120   23.6690   12.9920 C   0  0  0  0  0  0  0  0  0  0  0  0
   29.0410   24.3520   13.6580 C   0  0  0  0  0  0  0  0  0  0  0  0
   29.1810   25.7190   13.9130 N   0  0  0  0  0  0  0  0  0  0  0  0
   28.5540   26.7300   13.0570 C   0  0  0  0  0  0  0  0  0  0  0  0
   29.9880   26.2040   14.9460 C   0  0  0  0  0  0  0  0  0  0  0  0
   30.1930   27.3930   15.1840 O   0  0  0  0  0  0  0  0  0  0  0  0
   30.6570   25.1840   15.7960 C   0  0  0  0  0  0  0  0  0  0  0  0
   30.5080   23.8840   15.5280 C   0  0  0  0  0  0  0  0  0  0  0  0
   29.6890   23.4580   14.4260 C   0  0  0  0  0  0  0  0  0  0  0  0
   24.0780   25.9770   14.5640 C   0  0  0  0  0  0  0  0  0  0  0  0
   24.4870   26.6170   15.8920 C   0  0  0  0  0  0  0  0  0  0  0  0
   25.8450   27.3170   15.8740 C   0  0  0  0  0  0  0  0  0  0  0  0
   27.6060   27.5650   17.4150 O   0  0  0  0  0  1  0  0  0  0  0  0
   26.9170   26.7140   16.7840 C   0  0  0  0  0  0  0  0  0  0  0  0
   27.0130   25.4580   16.7750 O   0  0  0  0  0  0  0  0  0  0  0  0
   25.5369   25.8536   11.5707 H   0  0  0  0  0  0  0  0  0  0  0  0
   25.9105   26.9400   12.9939 H   0  0  0  0  0  0  0  0  0  0  0  0
   27.5985   26.9818   11.1530 H   0  0  0  0  0  0  0  0  0  0  0  0
   27.5373   24.5713   10.5508 H   0  0  0  0  0  0  0  0  0  0  0  0
   29.1917   25.0555   10.9915 H   0  0  0  0  0  0  0  0  0  0  0  0
   28.5572   22.9405   12.1370 H   0  0  0  0  0  0  0  0  0  0  0  0
   26.7356   23.0012   13.8658 H   0  0  0  0  0  0  0  0  0  0  0  0
   26.1554   23.2341   12.1487 H   0  0  0  0  0  0  0  0  0  0  0  0
   27.9625   27.3936   13.7049 H   0  0  0  0  0  0  0  0  0  0  0  0
   29.3881   27.2193   12.5327 H   0  0  0  0  0  0  0  0  0  0  0  0
   31.2764   25.5009   16.6480 H   0  0  0  0  0  0  0  0  0  0  0  0
   31.0149   23.1350   16.1541 H   0  0  0  0  0  0  0  0  0  0  0  0
   29.5908   22.3844   14.2075 H   0  0  0  0  0  0  0  0  0  0  0  0
   24.1904   26.7239   13.7643 H   0  0  0  0  0  0  0  0  0  0  0  0
   23.0352   25.6416   14.6648 H   0  0  0  0  0  0  0  0  0  0  0  0
   23.7226   27.3598   16.1637 H   0  0  0  0  0  0  0  0  0  0  0  0
   24.5714   25.7956   16.6188 H   0  0  0  0  0  0  0  0  0  0  0  0
   26.2246   27.2907   14.8419 H   0  0  0  0  0  0  0  0  0  0  0  0
   25.6632   28.3316   16.2581 H   0  0  0  0  0  0  0  0  0  0  0  0
  2  1  2  0
  3  1  1  0
  4  3  1  0
  5  4  1  0
  6  5  1  0
  7  6  1  0
  8  3  1  0
  8  7  1  0
  9  7  1  0
 10  9  1  0
 11 10  1  0
 11  5  1  0
 12 10  1  0
 13 12  2  0
 14 12  1  0
 15 14  2  0
 16 15  1  0
 16  9  2  0
 17  1  1  0
 18 17  1  0
 19 18  1  0
 21 19  1  0
 21 20  1  0
 22 21  2  0
  4 23  1  0
  4 24  1  0
  5 25  1  6
  6 26  1  0
  6 27  1  0
  7 28  1  6
  8 29  1  0
  8 30  1  0
 11 31  1  0
 11 32  1  0
 14 33  1  0
 15 34  1  0
 16 35  1  0
 17 36  1  0
 17 37  1  0
 18 38  1  0
 18 39  1  0
 19 40  1  0
 19 41  1  0
M  CHG  1  20  -1
M  END
$$$$
=
     RDKit          3D

 28 27  0  0  0  0  0  0  0  0999 V2000
   18.9310   15.9290    4.6750 C   0  0  2  0  0  0  0  0  0  0  0  0
   19.8710   14.8820    5.2810 C   0  0  0  0  0  0  0  0  0  0  0  0
   20.9750   15.4680    6.1200 C   0  0  0  0  0  0  0  0  0  0  0  0
   21.0290   15.3530    7.3400 O   0  0  0  0  0  0  0  0  0  0  0  0
   21.8400   16.2010    5.3700 O   0  0  0  0  0  0  0  0  0  0  0  0
   22.9650   18.2830    4.8740 C   0  0  0  0  0  0  0  0  0  0  0  0
   22.2700   17.4460    5.9320 C   0  0  0  0  0  0  0  0  0  0  0  0
   17.5780   15.4250    4.7860 O   0  0  0  0  0  0  0  0  0  0  0  0
   16.8140   15.9650    5.7700 C   0  0  0  0  0  0  0  0  0  0  0  0
   15.8500   15.4380    6.3100 O   0  0  0  0  0  0  0  0  0  0  0  0
   17.2850   17.3550    6.0660 C   0  0  0  0  0  0  0  0  0  0  0  0
   19.2110   16.1330    3.1890 C   0  0  0  0  0  0  0  0  0  0  0  0
   19.6330   17.5550    2.8180 C   0  0  0  0  0  0  0  0  0  0  0  0
   19.6280   18.4130    3.7410 O   0  0  0  0  0  0  0  0  0  0  0  0
   19.9530   17.6920    1.6020 O   0  0  0  0  0  1  0  0  0  0  0  0
   19.0765   16.8808    5.2069 H   0  0  0  0  0  0  0  0  0  0  0  0
   19.2760   14.2069    5.9136 H   0  0  0  0  0  0  0  0  0  0  0  0
   20.3511   14.3588    4.4409 H   0  0  0  0  0  0  0  0  0  0  0  0
   23.5948   19.0415    5.3619 H   0  0  0  0  0  0  0  0  0  0  0  0
   23.5930   17.6333    4.2466 H   0  0  0  0  0  0  0  0  0  0  0  0
   22.2110   18.7809    4.2466 H   0  0  0  0  0  0  0  0  0  0  0  0
   21.3960   17.9942    6.3135 H   0  0  0  0  0  0  0  0  0  0  0  0
   22.9741   17.2464    6.7532 H   0  0  0  0  0  0  0  0  0  0  0  0
   17.3345   17.5012    7.1551 H   0  0  0  0  0  0  0  0  0  0  0  0
   18.2839   17.5043    5.6302 H   0  0  0  0  0  0  0  0  0  0  0  0
   16.5826   18.0808    5.6302 H   0  0  0  0  0  0  0  0  0  0  0  0
   20.0174   15.4459    2.8928 H   0  0  0  0  0  0  0  0  0  0  0  0
   18.2665   15.9365    2.6605 H   0  0  0  0  0  0  0  0  0  0  0  0
  2  1  1  0
  3  2  1  0
  4  3  2  0
  5  3  1  0
  7  5  1  0
  7  6  1  0
  8  1  1  0
  9  8  1  0
 10  9  2  0
 11  9  1  0
 12  1  1  0
 13 12  1  0
 14 13  2  0
 15 13  1  0
  1 16  1  1
  2 17  1  0
  2 18  1  0
  6 19  1  0
  6 20  1  0
  6 21  1  0
  7 22  1  0
  7 23  1  0
 11 24  1  0
 11 25  1  0
 11 26  1  0
 12 27  1  0
 12 28  1  0
M  CHG  1  15  -1
M  END
$$$$
=
     RDKit          3D

 26 27  0  0  0  0  0  0  0  0999 V2000
   20.5950   16.2010    4.2980 N   0  0  0  0  0  0  0  0  0  0  0  0
   21.0190   17.4930    4.1330 C   0  0  0  0  0  0  0  0  0  0  0  0
   20.0420   18.0980    3.3820 C   0  0  0  0  0  0  0  0  0  0  0  0
   19.0500   17.2090    3.0670 N   0  0  0  0  0  0  0  0  0  0  0  0
   19.3980   16.0570    3.6300 C   0  0  0  0  0  0  0  0  0  0  0  0
   18.6290   14.8300    3.5260 C   0  0  0  0  0  0  0  0  0  0  0  0
   19.0690   13.7710    3.0730 O   0  0  0  0  0  0  0  0  0  0  0  0
   17.2190   14.8370    3.9900 C   0  0  0  0  0  0  0  0  0  0  0  0
   16.2230   14.0910    3.3520 C   0  0  0  0  0  0  0  0  0  0  0  0
   14.9160   14.1120    3.8450 C   0  0  0  0  0  0  0  0  0  0  0  0
   14.6050   14.8740    4.9730 C   0  0  0  0  0  0  0  0  0  0  0  0
   15.5990   15.6170    5.6120 C   0  0  0  0  0  0  0  0  0  0  0  0
   16.9070   15.5960    5.1240 C   0  0  0  0  0  0  0  0  0  0  0  0
   21.2860   15.1910    5.0750 C   0  0  0  0  0  0  0  0  0  0  0  0
   21.3860   15.9640    7.2980 O   0  0  0  0  0  1  0  0  0  0  0  0
   20.7650   15.1980    6.5040 C   0  0  0  0  0  0  0  0  0  0  0  0
   19.7930   14.4250    6.7420 O   0  0  0  0  0  0  0  0  0  0  0  0
   21.9432   17.9478    4.5191 H   0  0  0  0  0  0  0  0  0  0  0  0
   20.0546   19.1542    3.0749 H   0  0  0  0  0  0  0  0  0  0  0  0
   16.4680   13.4893    2.4644 H   0  0  0  0  0  0  0  0  0  0  0  0
   14.1306   13.5273    3.3437 H   0  0  0  0  0  0  0  0  0  0  0  0
   13.5749   14.8888    5.3587 H   0  0  0  0  0  0  0  0  0  0  0  0
   15.3520   16.2185    6.4992 H   0  0  0  0  0  0  0  0  0  0  0  0
   17.6924   16.1760    5.6307 H   0  0  0  0  0  0  0  0  0  0  0  0
   21.1110   14.2018    4.6269 H   0  0  0  0  0  0  0  0  0  0  0  0
   22.3641   15.4091    5.0793 H   0  0  0  0  0  0  0  0  0  0  0  0
  2  1  1  0
  3  2  2  0
  4  3  1  0
  5  1  1  0
  5  4  2  0
  6  5  1  0
  7  6  2  0
  8  6  1  0
  9  8  2  0
 10  9  1  0
 11 10  2  0
 12 11  1  0
 13 12  2  0
 13  8  1  0
 14  1  1  0
 16 14  1  0
 16 15  1  0
 17 16  2  0
  2 18  1  0
  3 19  1  0
  9 20  1  0
 10 21  1  0
 11 22  1  0
 12 23  1  0
 13 24  1  0
 14 25  1  0
 14 26  1  0
M  CHG  1  15  -1
M  END
$$$$
=
     RDKit          3D

 46 48  0  0  0  0  0  0  0  0999 V2000
   15.5000   16.0300    5.4340 C   0  0  0  0  0  0  0  0  0  0  0  0
   15.2100   15.4250    4.0540 C   0  0  0  0  0  0  0  0  0  0  0  0
   13.8720   14.6980    3.9590 C   0  0  0  0  0  0  0  0  0  0  0  0
   12.6030   15.1770    4.2500 C   0  0  0  0  0  0  0  0  0  0  0  0
   11.5200   14.3110    4.0850 C   0  0  0  0  0  0  0  0  0  0  0  0
   11.7130   12.9970    3.6310 C   0  0  0  0  0  0  0  0  0  0  0  0
   12.9940   12.5230    3.3330 C   0  0  0  0  0  0  0  0  0  0  0  0
   14.0700   13.3800    3.4940 C   0  0  0  0  0  0  0  0  0  0  0  0
   15.4860   13.1620    3.2810 C   0  0  0  0  0  0  0  0  0  0  0  0
   16.1870   14.3420    3.6120 C   0  0  0  0  0  0  0  0  0  0  0  0
   17.5690   14.4080    3.5230 C   0  0  0  0  0  0  0  0  0  0  0  0
   18.2560   13.2680    3.1030 C   0  0  0  0  0  0  0  0  0  0  0  0
   17.5640   12.0920    2.7710 C   0  0  0  0  0  0  0  0  0  0  0  0
   16.1690   12.0330    2.8590 C   0  0  0  0  0  0  0  0  0  0  0  0
   16.6620   16.8770    5.4130 O   0  0  0  0  0  0  0  0  0  0  0  0
   18.9420   16.9070    5.5250 N   0  0  0  0  0  0  0  0  0  0  0  0
   17.7660   16.4260    6.0730 C   0  0  0  0  0  0  0  0  0  0  0  0
   17.7080   15.6770    7.0420 O   0  0  0  0  0  0  0  0  0  0  0  0
   18.9510   17.9930    4.5410 C   0  0  0  0  0  0  0  0  0  0  0  0
   20.3670   18.4030    4.1140 C   0  0  0  0  0  0  0  0  0  0  0  0
   19.6070   17.5100    2.0600 C   0  0  0  0  0  0  0  0  0  0  0  0
   20.7470   17.8270    2.8560 O   0  0  0  0  0  0  0  0  0  0  0  0
   20.2060   16.6170    6.2450 C   0  0  0  0  0  0  0  0  0  0  0  0
   20.8980   15.2610    5.9690 C   0  0  0  0  0  0  0  0  0  0  0  0
   21.4980   15.1650    4.8610 O   0  0  0  0  0  0  0  0  0  0  0  0
   20.7840   14.4020    6.8940 O   0  0  0  0  0  1  0  0  0  0  0  0
   14.6312   16.6254    5.7513 H   0  0  0  0  0  0  0  0  0  0  0  0
   15.6915   15.2046    6.1355 H   0  0  0  0  0  0  0  0  0  0  0  0
   15.2635   16.3293    3.4300 H   0  0  0  0  0  0  0  0  0  0  0  0
   12.4542   16.2090    4.6005 H   0  0  0  0  0  0  0  0  0  0  0  0
   10.5032   14.6630    4.3136 H   0  0  0  0  0  0  0  0  0  0  0  0
   10.8455   12.3319    3.5081 H   0  0  0  0  0  0  0  0  0  0  0  0
   13.1440   11.4925    2.9786 H   0  0  0  0  0  0  0  0  0  0  0  0
   18.1086   15.3325    3.7762 H   0  0  0  0  0  0  0  0  0  0  0  0
   19.3534   13.2910    3.0311 H   0  0  0  0  0  0  0  0  0  0  0  0
   18.1255   11.2067    2.4378 H   0  0  0  0  0  0  0  0  0  0  0  0
   15.6271   11.1117    2.5992 H   0  0  0  0  0  0  0  0  0  0  0  0
   18.3977   17.6629    3.6494 H   0  0  0  0  0  0  0  0  0  0  0  0
   18.4829   18.8692    5.0134 H   0  0  0  0  0  0  0  0  0  0  0  0
   20.4064   19.4989    4.0271 H   0  0  0  0  0  0  0  0  0  0  0  0
   21.0677   18.0338    4.8774 H   0  0  0  0  0  0  0  0  0  0  0  0
   18.7562   17.2734    2.7158 H   0  0  0  0  0  0  0  0  0  0  0  0
   19.3521   18.3713    1.4251 H   0  0  0  0  0  0  0  0  0  0  0  0
   19.8334   16.6407    1.4251 H   0  0  0  0  0  0  0  0  0  0  0  0
   20.9220   17.4101    5.9836 H   0  0  0  0  0  0  0  0  0  0  0  0
   19.9166   16.5699    7.3052 H   0  0  0  0  0  0  0  0  0  0  0  0
  2  1  1  0
  3  2  1  0
  4  3  2  0
  5  4  1  0
  6  5  2  0
  7  6  1  0
  8  7  2  0
  8  3  1  0
  9  8  1  0
 10  9  2  0
 10  2  1  0
 11 10  1  0
 12 11  2  0
 13 12  1  0
 14  9  1  0
 14 13  2  0
 15  1  1  0
 17 15  1  0
 17 16  1  0
 18 17  2  0
 19 16  1  0
 20 19  1  0
 22 21  1  0
 22 20  1  0
 23 16  1  0
 24 23  1  0
 25 24  2  0
 26 24  1  0
  1 27  1  0
  1 28  1  0
  2 29  1  0
  4 30  1  0
  5 31  1  0
  6 32  1  0
  7 33  1  0
 11 34  1  0
 12 35  1  0
 13 36  1  0
 14 37  1  0
 19 38  1  0
 19 39  1  0
 20 40  1  0
 20 41  1  0
 21 42  1  0
 21 43  1  0
 21 44  1  0
 23 45  1  0
 23 46  1  0
M  CHG  1  26  -1
M  END
$$$$
=
     RDKit          3D

 27 27  0  0  0  0  0  0  0  0999 V2000
   18.8600   17.6940    5.3980 C   0  0  0  0  0  0  0  0  0  0  0  0
   18.6940   16.2310    5.0600 C   0  0  0  0  0  0  0  0  0  0  0  0
   19.6680   15.3340    5.3200 C   0  0  0  0  0  0  0  0  0  0  0  0
   17.3700   15.8800    4.3770 C   0  0  0  0  0  0  0  0  0  0  0  0
   16.1830   16.1500    5.3250 C   0  0  0  0  0  0  0  0  0  0  0  0
   14.8380   15.8870    4.6480 C   0  0  0  0  0  0  0  0  0  0  0  0
   14.7580   14.4840    4.0610 C   0  0  0  0  0  0  0  0  0  0  0  0
   15.9260   14.2050    3.1220 C   0  0  0  0  0  0  0  0  0  0  0  0
   17.2670   14.4470    3.8130 C   0  0  0  0  0  0  0  0  0  0  0  0
   21.0130   15.5590    6.0270 C   0  0  0  0  0  0  0  0  0  0  0  0
   21.9500   15.8810    5.2390 O   0  0  0  0  0  0  0  0  0  0  0  0
   21.0390   15.3620    7.2710 O   0  0  0  0  0  1  0  0  0  0  0  0
   18.8741   17.8185    6.4908 H   0  0  0  0  0  0  0  0  0  0  0  0
   19.8058   18.0631    4.9746 H   0  0  0  0  0  0  0  0  0  0  0  0
   18.0210   18.2656    4.9746 H   0  0  0  0  0  0  0  0  0  0  0  0
   19.4731   14.3059    4.9809 H   0  0  0  0  0  0  0  0  0  0  0  0
   17.3334   16.5418    3.4991 H   0  0  0  0  0  0  0  0  0  0  0  0
   16.2731   15.4933    6.2028 H   0  0  0  0  0  0  0  0  0  0  0  0
   16.2152   17.2103    5.6162 H   0  0  0  0  0  0  0  0  0  0  0  0
   14.0367   16.0066    5.3921 H   0  0  0  0  0  0  0  0  0  0  0  0
   14.7268   16.6065    3.8234 H   0  0  0  0  0  0  0  0  0  0  0  0
   14.7759   13.7515    4.8814 H   0  0  0  0  0  0  0  0  0  0  0  0
   13.8245   14.4032    3.4848 H   0  0  0  0  0  0  0  0  0  0  0  0
   15.8774   13.1568    2.7921 H   0  0  0  0  0  0  0  0  0  0  0  0
   15.8507   14.8884    2.2634 H   0  0  0  0  0  0  0  0  0  0  0  0
   17.3760   13.7300    4.6401 H   0  0  0  0  0  0  0  0  0  0  0  0
   18.0649   14.3145    3.0675 H   0  0  0  0  0  0  0  0  0  0  0  0
  2  1  1  0
  3  2  2  0
  4  2  1  0
  5  4  1  0
  6  5  1  0
  7  6  1  0
  8  7  1  0
  9  8  1  0
  9  4  1  0
 10  3  1  0
 11 10  2  0
 12 10  1  0
  1 13  1  0
  1 14  1  0
  1 15  1  0
  3 16  1  0
  4 17  1  0
  5 18  1  0
  5 19  1  0
  6 20  1  0
  6 21  1  0
  7 22  1  0
  7 23  1  0
  8 24  1  0
  8 25  1  0
  9 26  1  0
  9 27  1  0
M  CHG  1  12  -1
M  END
$$$$
=
     RDKit          3D

 35 35  0  0  0  0  0  0  0  0999 V2000
   17.5600   15.7500    3.9030 N   0  0  0  0  0  0  0  0  0  0  0  0
   18.8320   15.2920    3.6270 C   0  0  0  0  0  0  0  0  0  0  0  0
   19.0790   14.1530    3.2400 O   0  0  0  0  0  0  0  0  0  0  0  0
   19.8570   16.2230    4.0200 C   0  0  0  0  0  0  0  0  0  0  0  0
   20.2800   17.2620    3.2290 N   0  0  0  0  0  0  0  0  0  0  0  0
   19.8410   17.5670    1.8870 C   0  0  0  0  0  0  0  0  0  0  0  0
   21.2410   18.0370    3.7960 N   0  0  0  0  0  0  0  0  0  0  0  0
   21.4350   17.4510    4.9840 C   0  0  0  0  0  0  0  0  0  0  0  0
   20.6140   16.3290    5.1720 C   0  0  0  0  0  0  0  0  0  0  0  0
   20.6250   15.4530    6.4560 C   0  0  0  0  0  0  0  0  0  0  0  0
   21.5030   15.7560    7.3260 O   0  0  0  0  0  0  0  0  0  0  0  0
   19.7820   14.5120    6.5430 O   0  0  0  0  0  1  0  0  0  0  0  0
   16.4560   14.8090    4.1680 C   0  0  1  0  0  0  0  0  0  0  0  0
   15.4190   15.3700    5.2060 C   0  0  0  0  0  0  0  0  0  0  0  0
   14.2980   15.7230    4.7340 O   0  0  0  0  0  0  0  0  0  0  0  0
   15.8280   15.4260    6.4080 O   0  0  0  0  0  1  0  0  0  0  0  0
   15.6570   14.5310    2.8840 C   0  0  0  0  0  0  0  0  0  0  0  0
   16.6580   12.1640    2.7970 C   0  0  0  0  0  0  0  0  0  0  0  0
   15.4430   13.0450    2.5150 C   0  0  0  0  0  0  0  0  0  0  0  0
   14.1950   12.4590    3.1780 C   0  0  0  0  0  0  0  0  0  0  0  0
   17.3790   16.7638    3.9242 H   0  0  0  0  0  0  0  0  0  0  0  0
   18.9383   18.1941    1.9301 H   0  0  0  0  0  0  0  0  0  0  0  0
   20.6376   18.1072    1.3545 H   0  0  0  0  0  0  0  0  0  0  0  0
   19.6127   16.6320    1.3545 H   0  0  0  0  0  0  0  0  0  0  0  0
   22.1587   17.8098    5.7307 H   0  0  0  0  0  0  0  0  0  0  0  0
   16.9364   13.9014    4.5624 H   0  0  0  0  0  0  0  0  0  0  0  0
   14.6655   14.9930    3.0003 H   0  0  0  0  0  0  0  0  0  0  0  0
   16.2623   14.9504    2.0669 H   0  0  0  0  0  0  0  0  0  0  0  0
   16.7947   12.0649    3.8840 H   0  0  0  0  0  0  0  0  0  0  0  0
   16.5000   11.1691    2.3551 H   0  0  0  0  0  0  0  0  0  0  0  0
   17.5545   12.6234    2.3551 H   0  0  0  0  0  0  0  0  0  0  0  0
   15.2925   13.0435    1.4253 H   0  0  0  0  0  0  0  0  0  0  0  0
   14.3027   12.5096    4.2715 H   0  0  0  0  0  0  0  0  0  0  0  0
   13.3107   13.0360    2.8696 H   0  0  0  0  0  0  0  0  0  0  0  0
   14.0742   11.4101    2.8696 H   0  0  0  0  0  0  0  0  0  0  0  0
  2  1  1  0
  3  2  2  0
  4  2  1  0
  5  4  1  0
  6  5  1  0
  7  5  1  0
  8  7  2  0
  9  4  2  0
  9  8  1  0
 10  9  1  0
 11 10  2  0
 12 10  1  0
 13  1  1  0
 14 13  1  0
 15 14  2  0
 16 14  1  0
 17 13  1  0
 19 17  1  0
 19 18  1  0
 20 19  1  0
  1 21  1  0
  6 22  1  0
  6 23  1  0
  6 24  1  0
  8 25  1  0
 13 26  1  1
 17 27  1  0
 17 28  1  0
 18 29  1  0
 18 30  1  0
 18 31  1  0
 19 32  1  0
 20 33  1  0
 20 34  1  0
 20 35  1  0
M  CHG  2  12  -1  16  -1
M  END
$$$$
=
     RDKit          3D

 31 31  0  0  0  0  0  0  0  0999 V2000
   17.3300   17.2840    6.1420 O   0  0  0  0  0  0  0  0  0  0  0  0
   17.7170   16.5270    5.2580 C   0  0  0  0  0  0  0  0  0  0  0  0
   19.0100   16.3620    4.8700 N   0  0  0  0  0  0  0  0  0  0  0  0
   20.1790   16.9780    5.5230 C   0  0  2  0  0  0  0  0  0  0  0  0
   20.9030   17.9180    4.5690 C   0  0  0  0  0  0  0  0  0  0  0  0
   21.1880   15.8860    6.0190 C   0  0  0  0  0  0  0  0  0  0  0  0
   21.1670   15.6140    7.2510 O   0  0  0  0  0  0  0  0  0  0  0  0
   21.9060   15.3930    5.0890 O   0  0  0  0  0  1  0  0  0  0  0  0
   16.7270   15.6620    4.5640 C   0  0  0  0  0  0  0  0  0  0  0  0
   15.4870   15.4140    5.0150 C   0  0  0  0  0  0  0  0  0  0  0  0
   14.5240   14.5460    4.3250 C   0  0  0  0  0  0  0  0  0  0  0  0
   13.1560   14.7970    4.4850 C   0  0  0  0  0  0  0  0  0  0  0  0
   12.2040   13.9810    3.8660 C   0  0  0  0  0  0  0  0  0  0  0  0
   12.6020   12.8860    3.0930 C   0  0  0  0  0  0  0  0  0  0  0  0
   13.9690   12.6340    2.9320 C   0  0  0  0  0  0  0  0  0  0  0  0
   14.9210   13.4510    3.5500 C   0  0  0  0  0  0  0  0  0  0  0  0
   11.5830   12.0310    2.4010 C   0  0  0  0  0  0  0  0  0  0  0  0
   19.1865   15.7582    4.0544 H   0  0  0  0  0  0  0  0  0  0  0  0
   19.8051   17.5480    6.3863 H   0  0  0  0  0  0  0  0  0  0  0  0
   21.4739   18.6592    5.1475 H   0  0  0  0  0  0  0  0  0  0  0  0
   21.5906   17.3389    3.9351 H   0  0  0  0  0  0  0  0  0  0  0  0
   20.1675   18.4350    3.9351 H   0  0  0  0  0  0  0  0  0  0  0  0
   17.0311   15.1932    3.6165 H   0  0  0  0  0  0  0  0  0  0  0  0
   15.1740   15.8888    5.9566 H   0  0  0  0  0  0  0  0  0  0  0  0
   12.8267   15.6447    5.1039 H   0  0  0  0  0  0  0  0  0  0  0  0
   11.1334   14.2023    3.9882 H   0  0  0  0  0  0  0  0  0  0  0  0
   14.2977   11.7856    2.3138 H   0  0  0  0  0  0  0  0  0  0  0  0
   15.9915   13.2307    3.4256 H   0  0  0  0  0  0  0  0  0  0  0  0
   10.9672   11.5143    3.1518 H   0  0  0  0  0  0  0  0  0  0  0  0
   10.9398   12.6638    1.7718 H   0  0  0  0  0  0  0  0  0  0  0  0
   12.0944   11.2877    1.7718 H   0  0  0  0  0  0  0  0  0  0  0  0
  2  1  2  0
  3  2  1  0
  4  3  1  0
  5  4  1  0
  6  4  1  0
  7  6  2  0
  8  6  1  0
  9  2  1  0
 10  9  2  0
 11 10  1  0
 12 11  2  0
 13 12  1  0
 14 13  2  0
 15 14  1  0
 16 15  2  0
 16 11  1  0
 17 14  1  0
  3 18  1  0
  4 19  1  1
  5 20  1  0
  5 21  1  0
  5 22  1  0
  9 23  1  0
 10 24  1  0
 12 25  1  0
 13 26  1  0
 15 27  1  0
 16 28  1  0
 17 29  1  0
 17 30  1  0
 17 31  1  0
M  CHG  1   8  -1
M  END
$$$$
=
     RDKit          3D

 37 37  0  0  0  0  0  0  0  0999 V2000
   17.8260   15.0210    3.2960 C   0  0  1  0  0  0  0  0  0  0  0  0
   13.7470   14.2810    4.2860 C   0  0  0  0  0  0  0  0  0  0  0  0
   14.3550   15.3750    4.8790 C   0  0  0  0  0  0  0  0  0  0  0  0
   15.6880   15.6380    4.5740 C   0  0  0  0  0  0  0  0  0  0  0  0
   16.3750   14.8090    3.6810 C   0  0  0  0  0  0  0  0  0  0  0  0
   15.6720   13.7210    3.1630 C   0  0  0  0  0  0  0  0  0  0  0  0
   14.3690   13.4450    3.4300 N   0  0  0  0  0  0  0  0  0  0  0  0
   11.6620   13.5620    3.5240 C   0  0  0  0  0  0  0  0  0  0  0  0
   12.4210   14.0680    4.6170 O   0  0  0  0  0  0  0  0  0  0  0  0
   18.3260   16.3370    3.7170 N   0  0  0  0  0  0  0  0  0  0  0  0
   19.3210   17.0170    3.1090 C   0  0  0  0  0  0  0  0  0  0  0  0
   19.8430   16.7200    2.0450 O   0  0  0  0  0  0  0  0  0  0  0  0
   19.6520   18.0860    3.8740 O   0  0  0  0  0  0  0  0  0  0  0  0
   20.8520   18.0760    4.6820 C   0  0  0  0  0  0  0  0  0  0  0  0
   22.0240   18.7420    3.9520 C   0  0  0  0  0  0  0  0  0  0  0  0
   20.4990   18.9240    5.9140 C   0  0  0  0  0  0  0  0  0  0  0  0
   21.2000   16.6590    5.1510 C   0  0  0  0  0  0  0  0  0  0  0  0
   18.6900   13.8580    3.8970 C   0  0  0  0  0  0  0  0  0  0  0  0
   18.9160   12.8790    3.1300 O   0  0  0  0  0  0  0  0  0  0  0  0
   19.1020   14.0710    5.0820 O   0  0  0  0  0  1  0  0  0  0  0  0
   17.9043   15.0040    2.1989 H   0  0  0  0  0  0  0  0  0  0  0  0
   13.7983   16.0206    5.5742 H   0  0  0  0  0  0  0  0  0  0  0  0
   16.1997   16.4960    5.0344 H   0  0  0  0  0  0  0  0  0  0  0  0
   16.2113   13.0379    2.4903 H   0  0  0  0  0  0  0  0  0  0  0  0
   10.8040   12.9900    3.9070 H   0  0  0  0  0  0  0  0  0  0  0  0
   11.2996   14.3998    2.9102 H   0  0  0  0  0  0  0  0  0  0  0  0
   12.2960   12.9052    2.9102 H   0  0  0  0  0  0  0  0  0  0  0  0
   17.8837   16.7737    4.5383 H   0  0  0  0  0  0  0  0  0  0  0  0
   22.7337   19.1453    4.6894 H   0  0  0  0  0  0  0  0  0  0  0  0
   22.5334   17.9984    3.3214 H   0  0  0  0  0  0  0  0  0  0  0  0
   21.6459   19.5602    3.3214 H   0  0  0  0  0  0  0  0  0  0  0  0
   20.7343   18.3587    6.8278 H   0  0  0  0  0  0  0  0  0  0  0  0
   21.0842   19.8553    5.8980 H   0  0  0  0  0  0  0  0  0  0  0  0
   19.4258   19.1650    5.8980 H   0  0  0  0  0  0  0  0  0  0  0  0
   21.2076   16.6282    6.2505 H   0  0  0  0  0  0  0  0  0  0  0  0
   20.4489   15.9517    4.7695 H   0  0  0  0  0  0  0  0  0  0  0  0
   22.1933   16.3801    4.7695 H   0  0  0  0  0  0  0  0  0  0  0  0
  3  2  2  0
  4  3  1  0
  5  4  2  0
  5  1  1  0
  6  5  1  0
  7  6  2  0
  7  2  1  0
  9  8  1  0
  9  2  1  0
 10  1  1  0
 11 10  1  0
 12 11  2  0
 13 11  1  0
 14 13  1  0
 15 14  1  0
 16 14  1  0
 17 14  1  0
 18  1  1  0
 19 18  2  0
 20 18  1  0
  1 21  1  6
  3 22  1  0
  4 23  1  0
  6 24  1  0
  8 25  1  0
  8 26  1  0
  8 27  1  0
 10 28  1  0
 15 29  1  0
 15 30  1  0
 15 31  1  0
 16 32  1  0
 16 33  1  0
 16 34  1  0
 17 35  1  0
 17 36  1  0
 17 37  1  0
M  CHG  1  20  -1
M  END
$$$$
=
     RDKit          3D

 53 55  0  0  0  0  0  0  0  0999 V2000
   25.8290   24.9990   12.4190 C   0  0  0  0  0  0  0  0  0  0  0  0
   25.3920   24.0100   11.5310 C   0  0  0  0  0  0  0  0  0  0  0  0
   26.2950   23.0900   10.9880 C   0  0  0  0  0  0  0  0  0  0  0  0
   27.6470   23.1300   11.3350 C   0  0  0  0  0  0  0  0  0  0  0  0
   28.0900   24.1280   12.2100 C   0  0  0  0  0  0  0  0  0  0  0  0
   27.1970   25.0680   12.7550 C   0  0  0  0  0  0  0  0  0  0  0  0
   28.6200   22.1660   10.7270 C   0  0  0  0  0  0  0  0  0  0  0  0
   27.7480   26.1060   13.6430 C   0  0  0  0  0  0  0  0  0  0  0  0
   28.1710   25.8370   14.8850 C   0  0  0  0  0  0  0  0  0  0  0  0
   28.6900   26.9240   15.6960 C   0  0  0  0  0  0  0  0  0  0  0  0
   29.1730   26.6870   16.9880 C   0  0  0  0  0  0  0  0  0  0  0  0
   29.6690   27.7420   17.7560 C   0  0  0  0  0  0  0  0  0  0  0  0
   29.6870   29.0370   17.2410 C   0  0  0  0  0  0  0  0  0  0  0  0
   29.2080   29.2790   15.9540 C   0  0  0  0  0  0  0  0  0  0  0  0
   28.7100   28.2200   15.1810 C   0  0  0  0  0  0  0  0  0  0  0  0
   28.2020   28.4820   13.8130 C   0  0  0  0  0  0  0  0  0  0  0  0
   28.1930   29.6180   13.3480 O   0  0  0  0  0  0  0  0  0  0  0  0
   27.7420   27.4090   13.1010 O   0  0  0  0  0  0  0  0  0  0  0  0
   25.0030   25.9100   13.0280 O   0  0  0  0  0  0  0  0  0  0  0  0
   23.6370   25.5690   13.2130 C   0  0  0  0  0  0  0  0  0  0  0  0
   22.5900   25.7750   15.3910 N   0  0  0  0  0  0  0  0  0  0  0  0
   23.2790   24.9360   14.5620 C   0  0  0  0  0  0  0  0  0  0  0  0
   23.6160   23.7890   14.8460 O   0  0  0  0  0  0  0  0  0  0  0  0
   22.2370   25.5310   16.8070 C   0  0  1  0  0  0  0  0  0  0  0  0
   22.7950   26.7100   17.6930 C   0  0  0  0  0  0  0  0  0  0  0  0
   22.4310   27.8780   17.3960 O   0  0  0  0  0  0  0  0  0  0  0  0
   23.5850   26.3220   18.6140 O   0  0  0  0  0  1  0  0  0  0  0  0
   20.7150   25.4220   16.9750 C   0  0  0  0  0  0  0  0  0  0  0  0
   20.2460   24.9830   18.3660 C   0  0  0  0  0  0  0  0  0  0  0  0
   20.5700   22.5020   17.1450 C   0  0  0  0  0  0  0  0  0  0  0  0
   19.6390   23.2590   18.4970 S   0  0  0  0  0  0  0  0  0  0  0  0
   24.3280   23.9554   11.2572 H   0  0  0  0  0  0  0  0  0  0  0  0
   25.9366   22.3276   10.2807 H   0  0  0  0  0  0  0  0  0  0  0  0
   29.1561   24.1783   12.4765 H   0  0  0  0  0  0  0  0  0  0  0  0
   29.1570   21.6340   11.5261 H   0  0  0  0  0  0  0  0  0  0  0  0
   28.0765   21.4402   10.1043 H   0  0  0  0  0  0  0  0  0  0  0  0
   29.3407   22.7162   10.1043 H   0  0  0  0  0  0  0  0  0  0  0  0
   28.1261   24.8125   15.2830 H   0  0  0  0  0  0  0  0  0  0  0  0
   29.1618   25.6669   17.3994 H   0  0  0  0  0  0  0  0  0  0  0  0
   30.0469   27.5506   18.7711 H   0  0  0  0  0  0  0  0  0  0  0  0
   30.0782   29.8664   17.8485 H   0  0  0  0  0  0  0  0  0  0  0  0
   29.2207   30.3001   15.5452 H   0  0  0  0  0  0  0  0  0  0  0  0
   23.0430   26.4885   13.1045 H   0  0  0  0  0  0  0  0  0  0  0  0
   23.4185   24.8000   12.4574 H   0  0  0  0  0  0  0  0  0  0  0  0
   22.2839   26.6721   14.9879 H   0  0  0  0  0  0  0  0  0  0  0  0
   22.6875   24.5807   17.1296 H   0  0  0  0  0  0  0  0  0  0  0  0
   20.2769   26.4085   16.7630 H   0  0  0  0  0  0  0  0  0  0  0  0
   20.3845   24.6379   16.2779 H   0  0  0  0  0  0  0  0  0  0  0  0
   21.0930   25.0959   19.0587 H   0  0  0  0  0  0  0  0  0  0  0  0
   19.3832   25.6220   18.6053 H   0  0  0  0  0  0  0  0  0  0  0  0
   21.3607   21.8591   17.5592 H   0  0  0  0  0  0  0  0  0  0  0  0
   19.8913   21.8963   16.5266 H   0  0  0  0  0  0  0  0  0  0  0  0
   21.0245   23.2900   16.5266 H   0  0  0  0  0  0  0  0  0  0  0  0
  2  1  2  0
  3  2  1  0
  4  3  2  0
  5  4  1  0
  6  1  1  0
  6  5  2  0
  7  4  1  0
  8  6  1  0
  9  8  2  0
 10  9  1  0
 11 10  2  0
 12 11  1  0
 13 12  2  0
 14 13  1  0
 15 10  1  0
 15 14  2  0
 16 15  1  0
 17 16  2  0
 18  8  1  0
 18 16  1  0
 19  1  1  0
 20 19  1  0
 22 21  1  0
 22 20  1  0
 23 22  2  0
 24 21  1  0
 25 24  1  0
 26 25  2  0
 27 25  1  0
 28 24  1  0
 29 28  1  0
 31 30  1  0
 31 29  1  0
  2 32  1  0
  3 33  1  0
  5 34  1  0
  7 35  1  0
  7 36  1  0
  7 37  1  0
  9 38  1  0
 11 39  1  0
 12 40  1  0
 13 41  1  0
 14 42  1  0
 20 43  1  0
 20 44  1  0
 21 45  1  0
 24 46  1  1
 28 47  1  0
 28 48  1  0
 29 49  1  0
 29 50  1  0
 30 51  1  0
 30 52  1  0
 30 53  1  0
M  CHG  1  27  -1
M  END
$$$$
=
     RDKit          3D

 31 31  0  0  0  0  0  0  0  0999 V2000
   19.2360   16.1680    4.4260 C   0  0  0  0  0  0  0  0  0  0  0  0
   19.7880   15.0900    3.9070 N   0  0  0  0  0  0  0  0  0  0  0  0
   18.8400   14.1850    3.4630 N   0  0  0  0  0  0  0  0  0  0  0  0
   17.6200   14.6130    3.6710 C   0  0  0  0  0  0  0  0  0  0  0  0
   17.5170   16.1460    4.4220 S   0  0  0  0  0  0  0  0  0  0  0  0
   16.4090   14.0490    3.3940 N   0  0  0  0  0  0  0  0  0  0  0  0
   16.2770   12.8140    2.7890 C   0  0  0  0  0  0  0  0  0  0  0  0
   17.1910   12.0830    2.4300 O   0  0  0  0  0  0  0  0  0  0  0  0
   19.9980   17.3230    4.9930 C   0  0  0  0  0  0  0  0  0  0  0  0
   22.0910   18.5220    4.2900 C   0  0  0  0  0  0  0  0  0  0  0  0
   21.5200   17.1940    4.7950 C   0  0  0  0  0  0  0  0  0  0  0  0
   22.2360   16.7820    6.0830 C   0  0  0  0  0  0  0  0  0  0  0  0
   14.8070   12.4750    2.6220 C   0  0  0  0  0  0  0  0  0  0  0  0
   13.9810   12.6150    3.8880 C   0  0  0  0  0  0  0  0  0  0  0  0
   13.0280   13.8070    3.8050 C   0  0  0  0  0  0  0  0  0  0  0  0
   13.5150   14.8980    4.2120 O   0  0  0  0  0  0  0  0  0  0  0  0
   11.8750   13.5710    3.3430 O   0  0  0  0  0  1  0  0  0  0  0  0
   15.5554   14.5669    3.6471 H   0  0  0  0  0  0  0  0  0  0  0  0
   19.6569   18.2447    4.4988 H   0  0  0  0  0  0  0  0  0  0  0  0
   19.8073   17.3437    6.0761 H   0  0  0  0  0  0  0  0  0  0  0  0
   22.3628   19.1542    5.1481 H   0  0  0  0  0  0  0  0  0  0  0  0
   22.9853   18.3281    3.6795 H   0  0  0  0  0  0  0  0  0  0  0  0
   21.3351   19.0377    3.6795 H   0  0  0  0  0  0  0  0  0  0  0  0
   21.6911   16.4021    4.0510 H   0  0  0  0  0  0  0  0  0  0  0  0
   21.6509   17.1187    6.9515 H   0  0  0  0  0  0  0  0  0  0  0  0
   22.3380   15.6871    6.1117 H   0  0  0  0  0  0  0  0  0  0  0  0
   23.2338   17.2440    6.1117 H   0  0  0  0  0  0  0  0  0  0  0  0
   14.3841   13.1460    1.8599 H   0  0  0  0  0  0  0  0  0  0  0  0
   14.7612   11.4143    2.3342 H   0  0  0  0  0  0  0  0  0  0  0  0
   13.3933   11.6968    4.0349 H   0  0  0  0  0  0  0  0  0  0  0  0
   14.6672   12.7794    4.7319 H   0  0  0  0  0  0  0  0  0  0  0  0
  2  1  2  0
  3  2  1  0
  4  3  2  0
  5  4  1  0
  5  1  1  0
  6  4  1  0
  7  6  1  0
  8  7  2  0
  9  1  1  0
 11  9  1  0
 11 10  1  0
 12 11  1  0
 13  7  1  0
 14 13  1  0
 15 14  1  0
 16 15  2  0
 17 15  1  0
  6 18  1  0
  9 19  1  0
  9 20  1  0
 10 21  1  0
 10 22  1  0
 10 23  1  0
 11 24  1  0
 12 25  1  0
 12 26  1  0
 12 27  1  0
 13 28  1  0
 13 29  1  0
 14 30  1  0
 14 31  1  0
M  CHG  1  17  -1
M  END
$$$$
=
     RDKit          3D

 18 18  0  0  0  0  0  0  0  0999 V2000
   15.5070   13.5510    3.3760 C   0  0  0  0  0  0  0  0  0  0  0  0
   15.1260   14.5710    4.2520 C   0  0  0  0  0  0  0  0  0  0  0  0
   13.7860   14.7140    4.6240 C   0  0  0  0  0  0  0  0  0  0  0  0
   12.7910   13.8430    4.1390 C   0  0  0  0  0  0  0  0  0  0  0  0
   13.1880   12.8190    3.2800 C   0  0  0  0  0  0  0  0  0  0  0  0
   14.5270   12.6710    2.9030 C   0  0  0  0  0  0  0  0  0  0  0  0
   12.3210   11.9170    2.7990 F   0  0  0  0  0  0  0  0  0  0  0  0
   11.3570   14.0340    4.5590 C   0  0  0  0  0  0  0  0  0  0  0  0
   10.5600   14.5940    3.7460 O   0  0  0  0  0  0  0  0  0  0  0  0
   11.0540   13.6320    5.7290 O   0  0  0  0  0  1  0  0  0  0  0  0
   16.9490   13.3640    2.9990 C   0  0  0  0  0  0  0  0  0  0  0  0
   17.1780   12.0460    2.5160 O   0  0  0  0  0  0  0  0  0  0  0  0
   15.8826   15.2633    4.6499 H   0  0  0  0  0  0  0  0  0  0  0  0
   13.5023   15.5250    5.3109 H   0  0  0  0  0  0  0  0  0  0  0  0
   14.8132   11.8525    2.2261 H   0  0  0  0  0  0  0  0  0  0  0  0
   17.2130   14.0870    2.2131 H   0  0  0  0  0  0  0  0  0  0  0  0
   17.5706   13.5252    3.8921 H   0  0  0  0  0  0  0  0  0  0  0  0
   17.2854   11.4279    3.2818 H   0  0  0  0  0  0  0  0  0  0  0  0
  2  1  2  0
  3  2  1  0
  4  3  2  0
  5  4  1  0
  6  5  2  0
  6  1  1  0
  7  5  1  0
  8  4  1  0
  9  8  2  0
 10  8  1  0
 11  1  1  0
 12 11  1  0
  2 13  1  0
  3 14  1  0
  6 15  1  0
 11 16  1  0
 11 17  1  0
 12 18  1  0
M  CHG  1  10  -1
M  END
$$$$
=
     RDKit          3D

 39 41  0  0  0  0  0  0  0  0999 V2000
   12.4800   14.1740    3.8730 C   0  0  2  0  0  0  0  0  0  0  0  0
   13.4900   13.0500    4.0500 C   0  0  2  0  0  0  0  0  0  0  0  0
   13.7400   14.3930    4.6980 C   0  0  1  0  0  0  0  0  0  0  0  0
   14.7650   15.3930    4.2560 C   0  0  0  0  0  0  0  0  0  0  0  0
   15.7260   14.9520    3.1540 C   0  0  0  0  0  0  0  0  0  0  0  0
   16.3980   13.6820    3.5370 N   0  0  0  0  0  0  0  0  0  0  0  0
   15.7320   12.4360    3.0580 C   0  0  0  0  0  0  0  0  0  0  0  0
   14.2230   12.5500    2.8460 C   0  0  0  0  0  0  0  0  0  0  0  0
   11.1810   13.5410    5.7240 O   0  0  0  0  0  1  0  0  0  0  0  0
   11.1830   14.0780    4.5730 C   0  0  0  0  0  0  0  0  0  0  0  0
   10.1620   14.5250    3.9640 O   0  0  0  0  0  0  0  0  0  0  0  0
   18.0920   13.6490    3.4280 S   0  0  0  0  0  6  0  0  0  0  0  0
   18.6030   12.6430    4.3350 O   0  0  0  0  0  0  0  0  0  0  0  0
   18.4420   13.6290    2.0210 O   0  0  0  0  0  0  0  0  0  0  0  0
   18.5550   15.2270    4.0980 C   0  0  0  0  0  0  0  0  0  0  0  0
   18.3620   15.4640    5.4610 C   0  0  0  0  0  0  0  0  0  0  0  0
   18.7080   16.7030    5.9990 C   0  0  0  0  0  0  0  0  0  0  0  0
   19.2410   17.7080    5.1800 C   0  0  0  0  0  0  0  0  0  0  0  0
   19.4490   17.4480    3.8180 C   0  0  0  0  0  0  0  0  0  0  0  0
   19.1020   16.2110    3.2720 C   0  0  0  0  0  0  0  0  0  0  0  0
   19.6370   19.0310    5.7670 C   0  0  0  0  0  0  0  0  0  0  0  0
   12.0136   14.6756    3.0123 H   0  0  0  0  0  0  0  0  0  0  0  0
   13.4967   12.0222    4.4418 H   0  0  0  0  0  0  0  0  0  0  0  0
   13.9915   14.6897    5.7270 H   0  0  0  0  0  0  0  0  0  0  0  0
   14.2281   16.2819    3.8934 H   0  0  0  0  0  0  0  0  0  0  0  0
   15.3984   15.5656    5.1386 H   0  0  0  0  0  0  0  0  0  0  0  0
   15.1635   14.7986    2.2212 H   0  0  0  0  0  0  0  0  0  0  0  0
   16.4881   15.7319    3.0089 H   0  0  0  0  0  0  0  0  0  0  0  0
   16.1905   12.1510    2.0996 H   0  0  0  0  0  0  0  0  0  0  0  0
   15.8750   11.6871    3.8509 H   0  0  0  0  0  0  0  0  0  0  0  0
   14.0394   13.2443    2.0128 H   0  0  0  0  0  0  0  0  0  0  0  0
   13.8475   11.5380    2.6344 H   0  0  0  0  0  0  0  0  0  0  0  0
   17.9400   14.6787    6.1054 H   0  0  0  0  0  0  0  0  0  0  0  0
   18.5618   16.8929    7.0726 H   0  0  0  0  0  0  0  0  0  0  0  0
   19.8889   18.2245    3.1749 H   0  0  0  0  0  0  0  0  0  0  0  0
   19.2580   16.0133    2.2012 H   0  0  0  0  0  0  0  0  0  0  0  0
   19.6174   18.9656    6.8649 H   0  0  0  0  0  0  0  0  0  0  0  0
   20.6524   19.2911    5.4332 H   0  0  0  0  0  0  0  0  0  0  0  0
   18.9315   19.8062    5.4332 H   0  0  0  0  0  0  0  0  0  0  0  0
  2  1  1  0
  3  2  1  0
  3  1  1  0
  4  3  1  0
  5  4  1  0
  6  5  1  0
  7  6  1  0
  8  7  1  0
  8  2  1  0
 10  1  1  0
 10  9  1  0
 11 10  2  0
 12  6  1  0
 13 12  2  0
 14 12  2  0
 15 12  1  0
 16 15  2  0
 17 16  1  0
 18 17  2  0
 19 18  1  0
 20 15  1  0
 20 19  2  0
 21 18  1  0
  1 22  1  6
  2 23  1  1
  3 24  1  1
  4 25  1  0
  4 26  1  0
  5 27  1  0
  5 28  1  0
  7 29  1  0
  7 30  1  0
  8 31  1  0
  8 32  1  0
 16 33  1  0
 17 34  1  0
 19 35  1  0
 20 36  1  0
 21 37  1  0
 21 38  1  0
 21 39  1  0
M  CHG  1   9  -1
M  END
$$$$
=
     RDKit          3D

 38 39  0  0  0  0  0  0  0  0999 V2000
   27.4490   26.2140   13.3430 N   0  0  0  0  0  0  0  0  0  0  0  0
   26.1940   26.1050   12.7610 C   0  0  0  0  0  0  0  0  0  0  0  0
   25.9560   25.6330   11.6580 O   0  0  0  0  0  0  0  0  0  0  0  0
   25.1610   26.6280   13.7220 C   0  0  0  0  0  0  0  0  0  0  0  0
   25.9790   27.2200   14.8670 C   0  0  2  0  0  0  0  0  0  0  0  0
   27.3420   26.5480   14.7620 C   0  0  2  0  0  0  0  0  0  0  0  0
   28.4840   27.4450   15.2330 C   0  0  0  0  0  0  0  0  0  0  0  0
   28.5310   28.7880   14.8010 C   0  0  0  0  0  0  0  0  0  0  0  0
   29.5530   29.6470   15.2040 C   0  0  0  0  0  0  0  0  0  0  0  0
   30.5470   29.1830   16.0560 C   0  0  0  0  0  0  0  0  0  0  0  0
   30.5160   27.8640   16.5060 C   0  0  0  0  0  0  0  0  0  0  0  0
   29.4920   26.9840   16.1070 C   0  0  0  0  0  0  0  0  0  0  0  0
   29.4980   25.5810   16.6530 C   0  0  0  0  0  0  0  0  0  0  0  0
   25.2550   26.8710   16.1560 C   0  0  0  0  0  0  0  0  0  0  0  0
   25.9350   26.1880   16.9710 O   0  0  0  0  0  0  0  0  0  0  0  0
   24.0830   27.3230   16.2800 O   0  0  0  0  0  1  0  0  0  0  0  0
   28.5780   25.4660   12.8070 C   0  0  0  0  0  0  0  0  0  0  0  0
   28.5410   23.9750   13.1640 C   0  0  0  0  0  0  0  0  0  0  0  0
   28.2640   23.0440   11.0020 C   0  0  0  0  0  0  0  0  0  0  0  0
   29.1200   23.1680   12.1300 O   0  0  0  0  0  0  0  0  0  0  0  0
   24.5409   27.4014   13.2452 H   0  0  0  0  0  0  0  0  0  0  0  0
   24.4671   25.8449   14.0614 H   0  0  0  0  0  0  0  0  0  0  0  0
   26.1005   28.3128   14.8364 H   0  0  0  0  0  0  0  0  0  0  0  0
   27.4230   25.6668   15.4154 H   0  0  0  0  0  0  0  0  0  0  0  0
   27.7440   29.1654   14.1316 H   0  0  0  0  0  0  0  0  0  0  0  0
   29.5719   30.6878   14.8486 H   0  0  0  0  0  0  0  0  0  0  0  0
   31.3572   29.8551   16.3751 H   0  0  0  0  0  0  0  0  0  0  0  0
   31.3044   27.5049   17.1838 H   0  0  0  0  0  0  0  0  0  0  0  0
   29.4979   25.6154   17.7525 H   0  0  0  0  0  0  0  0  0  0  0  0
   28.6021   25.0474   16.3027 H   0  0  0  0  0  0  0  0  0  0  0  0
   30.3984   25.0551   16.3027 H   0  0  0  0  0  0  0  0  0  0  0  0
   28.5728   25.5631   11.7113 H   0  0  0  0  0  0  0  0  0  0  0  0
   29.4902   25.8863   13.2555 H   0  0  0  0  0  0  0  0  0  0  0  0
   29.1033   23.8175   14.0962 H   0  0  0  0  0  0  0  0  0  0  0  0
   27.4889   23.6768   13.2833 H   0  0  0  0  0  0  0  0  0  0  0  0
   27.2287   22.8940   11.3421 H   0  0  0  0  0  0  0  0  0  0  0  0
   28.3217   23.9599   10.3955 H   0  0  0  0  0  0  0  0  0  0  0  0
   28.5792   22.1821   10.3955 H   0  0  0  0  0  0  0  0  0  0  0  0
  2  1  1  0
  3  2  2  0
  4  2  1  0
  5  4  1  0
  6  5  1  0
  6  1  1  0
  7  6  1  0
  8  7  2  0
  9  8  1  0
 10  9  2  0
 11 10  1  0
 12  7  1  0
 12 11  2  0
 13 12  1  0
 14  5  1  0
 15 14  2  0
 16 14  1  0
 17  1  1  0
 18 17  1  0
 20 19  1  0
 20 18  1  0
  4 21  1  0
  4 22  1  0
  5 23  1  6
  6 24  1  1
  8 25  1  0
  9 26  1  0
 10 27  1  0
 11 28  1  0
 13 29  1  0
 13 30  1  0
 13 31  1  0
 17 32  1  0
 17 33  1  0
 18 34  1  0
 18 35  1  0
 19 36  1  0
 19 37  1  0
 19 38  1  0
M  CHG  1  16  -1
M  END
$$$$
=
     RDKit          3D

 30 32  0  0  0  0  0  0  0  0999 V2000
   20.2250   17.1900    5.2780 C   0  0  0  0  0  0  0  0  0  0  0  0
   19.4770   18.2120    5.8380 C   0  0  0  0  0  0  0  0  0  0  0  0
   17.8040   17.8590    5.7120 S   0  0  0  0  0  0  0  0  0  0  0  0
   18.1900   16.3920    4.9300 C   0  0  0  0  0  0  0  0  0  0  0  0
   19.4680   16.1380    4.7530 N   0  0  0  0  0  0  0  0  0  0  0  0
   17.1690   15.5220    4.5090 N   0  0  0  0  0  0  0  0  0  0  0  0
   15.8540   15.8490    4.7250 N   0  0  0  0  0  0  0  0  0  0  0  0
   15.1660   14.8290    4.2180 C   0  0  0  0  0  0  0  0  0  0  0  0
   15.9920   13.8350    3.6610 C   0  0  0  0  0  0  0  0  0  0  0  0
   17.2790   14.2900    3.8610 C   0  0  0  0  0  0  0  0  0  0  0  0
   18.5850   13.6760    3.5050 C   0  0  0  0  0  0  0  0  0  0  0  0
   15.4700   12.5880    3.0440 C   0  0  0  0  0  0  0  0  0  0  0  0
   13.9660   12.7090    2.7370 C   0  0  0  0  0  0  0  0  0  0  0  0
   13.1870   13.3490    3.9000 C   0  0  0  0  0  0  0  0  0  0  0  0
   13.6790   14.7740    4.2140 C   0  0  0  0  0  0  0  0  0  0  0  0
   22.4210   16.8710    6.3190 O   0  0  0  0  0  1  0  0  0  0  0  0
   21.8330   17.2570    5.2580 C   0  0  0  0  0  0  0  0  0  0  0  0
   22.3840   17.6860    4.1990 O   0  0  0  0  0  0  0  0  0  0  0  0
   19.8958   19.1195    6.2974 H   0  0  0  0  0  0  0  0  0  0  0  0
   19.1319   13.4189    4.4241 H   0  0  0  0  0  0  0  0  0  0  0  0
   18.4126   12.7646    2.9137 H   0  0  0  0  0  0  0  0  0  0  0  0
   19.1769   14.3902    2.9137 H   0  0  0  0  0  0  0  0  0  0  0  0
   16.0136   12.3958    2.1072 H   0  0  0  0  0  0  0  0  0  0  0  0
   15.6164   11.7596    3.7528 H   0  0  0  0  0  0  0  0  0  0  0  0
   13.8363   13.3305    1.8387 H   0  0  0  0  0  0  0  0  0  0  0  0
   13.5695   11.6948    2.5814 H   0  0  0  0  0  0  0  0  0  0  0  0
   12.1213   13.3932    3.6309 H   0  0  0  0  0  0  0  0  0  0  0  0
   13.3480   12.7308    4.7955 H   0  0  0  0  0  0  0  0  0  0  0  0
   13.2943   15.4653    3.4497 H   0  0  0  0  0  0  0  0  0  0  0  0
   13.3121   15.0630    5.2099 H   0  0  0  0  0  0  0  0  0  0  0  0
  2  1  2  0
  3  2  1  0
  4  3  1  0
  5  4  2  0
  5  1  1  0
  6  4  1  0
  7  6  1  0
  8  7  2  0
  9  8  1  0
 10  9  2  0
 10  6  1  0
 11 10  1  0
 12  9  1  0
 13 12  1  0
 14 13  1  0
 15 14  1  0
 15  8  1  0
 17  1  1  0
 17 16  1  0
 18 17  2  0
  2 19  1  0
 11 20  1  0
 11 21  1  0
 11 22  1  0
 12 23  1  0
 12 24  1  0
 13 25  1  0
 13 26  1  0
 14 27  1  0
 14 28  1  0
 15 29  1  0
 15 30  1  0
M  CHG  1  16  -1
M  END
$$$$
=
     RDKit          3D

 31 32  0  0  0  0  0  0  0  0999 V2000
   14.2230   14.1340    4.0930 C   0  0  0  0  0  0  0  0  0  0  0  0
   15.2430   13.5460    3.3440 C   0  0  0  0  0  0  0  0  0  0  0  0
   16.5460   14.0510    3.3900 C   0  0  0  0  0  0  0  0  0  0  0  0
   16.8600   15.1600    4.1870 C   0  0  0  0  0  0  0  0  0  0  0  0
   15.8270   15.7460    4.9350 C   0  0  0  0  0  0  0  0  0  0  0  0
   14.5210   15.2390    4.8890 C   0  0  0  0  0  0  0  0  0  0  0  0
   18.2140   15.6950    4.2450 C   0  0  0  0  0  0  0  0  0  0  0  0
   19.0490   16.3600    3.3780 C   0  0  0  0  0  0  0  0  0  0  0  0
   20.2490   16.6320    3.9760 N   0  0  0  0  0  0  0  0  0  0  0  0
   20.1320   16.1270    5.2040 C   0  0  0  0  0  0  0  0  0  0  0  0
   18.8960   15.5390    5.4180 O   0  0  0  0  0  0  0  0  0  0  0  0
   21.2790   16.1700    6.3580 C   0  0  0  0  0  0  0  0  0  0  0  0
   21.1420   15.3470    7.3220 O   0  0  0  0  0  0  0  0  0  0  0  0
   22.2250   17.0110    6.2230 O   0  0  0  0  0  1  0  0  0  0  0  0
   12.9970   13.5460    3.9570 O   0  0  0  0  0  0  0  0  0  0  0  0
   12.8530   12.5720    2.9230 C   0  0  0  0  0  0  0  0  0  0  0  0
   11.3790   12.4800    2.5160 C   0  0  0  0  0  0  0  0  0  0  0  0
    9.6810   11.1380    1.5020 C   0  0  0  0  0  0  0  0  0  0  0  0
   10.9410   11.1670    2.1530 O   0  0  0  0  0  0  0  0  0  0  0  0
   15.0194   12.6752    2.7101 H   0  0  0  0  0  0  0  0  0  0  0  0
   17.3352   13.5713    2.7925 H   0  0  0  0  0  0  0  0  0  0  0  0
   16.0461   16.6183    5.5683 H   0  0  0  0  0  0  0  0  0  0  0  0
   13.7276   15.7152    5.4837 H   0  0  0  0  0  0  0  0  0  0  0  0
   18.7879   16.6354    2.3455 H   0  0  0  0  0  0  0  0  0  0  0  0
   13.4568   12.8682    2.0525 H   0  0  0  0  0  0  0  0  0  0  0  0
   13.1962   11.5929    3.2886 H   0  0  0  0  0  0  0  0  0  0  0  0
   10.7673   12.8235    3.3632 H   0  0  0  0  0  0  0  0  0  0  0  0
   11.2643   13.1056    1.6185 H   0  0  0  0  0  0  0  0  0  0  0  0
    8.8795   11.1196    2.2552 H   0  0  0  0  0  0  0  0  0  0  0  0
    9.5726   12.0339    0.8730 H   0  0  0  0  0  0  0  0  0  0  0  0
    9.6139   10.2381    0.8730 H   0  0  0  0  0  0  0  0  0  0  0  0
  2  1  2  0
  3  2  1  0
  4  3  2  0
  5  4  1  0
  6  5  2  0
  6  1  1  0
  7  4  1  0
  8  7  2  0
  9  8  1  0
 10  9  2  0
 11 10  1  0
 11  7  1  0
 12 10  1  0
 13 12  2  0
 14 12  1  0
 15  1  1  0
 16 15  1  0
 17 16  1  0
 19 18  1  0
 19 17  1  0
  2 20  1  0
  3 21  1  0
  5 22  1  0
  6 23  1  0
  8 24  1  0
 16 25  1  0
 16 26  1  0
 17 27  1  0
 17 28  1  0
 18 29  1  0
 18 30  1  0
 18 31  1  0
M  CHG  1  14  -1
M  END
$$$$
=
     RDKit          3D

 42 43  0  0  0  0  0  0  0  0999 V2000
   16.7210   15.7450    4.2030 S   0  0  0  0  0  6  0  0  0  0  0  0
   17.4240   15.9470    2.9490 O   0  0  0  0  0  0  0  0  0  0  0  0
   16.1220   16.8860    4.8690 O   0  0  0  0  0  0  0  0  0  0  0  0
   15.7650   13.3460    3.2190 C   0  0  0  0  0  0  0  0  0  0  0  0
   14.7550   12.3900    3.0630 C   0  0  0  0  0  0  0  0  0  0  0  0
   13.4880   12.5940    3.6160 C   0  0  0  0  0  0  0  0  0  0  0  0
   13.1940   13.7490    4.3530 C   0  0  0  0  0  0  0  0  0  0  0  0
   14.2210   14.6850    4.5520 C   0  0  0  0  0  0  0  0  0  0  0  0
   15.4900   14.4890    3.9830 C   0  0  0  0  0  0  0  0  0  0  0  0
   11.7980   13.9910    4.8920 C   0  0  0  0  0  0  0  0  0  0  0  0
   11.4810   13.3870    5.9640 O   0  0  0  0  0  0  0  0  0  0  0  0
   11.0480   14.7610    4.2170 O   0  0  0  0  0  1  0  0  0  0  0  0
   17.7740   12.0920    3.0860 C   0  0  0  0  0  0  0  0  0  0  0  0
   17.0120   13.2180    2.6720 O   0  0  0  0  0  0  0  0  0  0  0  0
   17.8480   15.0310    5.2700 N   0  0  0  0  0  0  0  0  0  0  0  0
   17.8210   15.5230    6.6650 C   0  0  0  0  0  0  0  0  0  0  0  0
   16.5550   15.1480    7.4190 C   0  0  0  0  0  0  0  0  0  0  0  0
   19.2070   14.8020    4.7180 C   0  0  0  0  0  0  0  0  0  0  0  0
   20.1680   15.9190    5.0610 C   0  0  0  0  0  0  0  0  0  0  0  0
   20.0130   17.1980    4.5060 C   0  0  0  0  0  0  0  0  0  0  0  0
   20.9020   18.2260    4.8280 C   0  0  0  0  0  0  0  0  0  0  0  0
   21.9550   17.9880    5.7100 C   0  0  0  0  0  0  0  0  0  0  0  0
   22.1200   16.7220    6.2660 C   0  0  0  0  0  0  0  0  0  0  0  0
   21.2370   15.6920    5.9390 C   0  0  0  0  0  0  0  0  0  0  0  0
   14.9606   11.4682    2.4991 H   0  0  0  0  0  0  0  0  0  0  0  0
   12.7067   11.8336    3.4700 H   0  0  0  0  0  0  0  0  0  0  0  0
   14.0299   15.5815    5.1601 H   0  0  0  0  0  0  0  0  0  0  0  0
   17.8013   12.0517    4.1849 H   0  0  0  0  0  0  0  0  0  0  0  0
   17.3114   11.1730    2.6968 H   0  0  0  0  0  0  0  0  0  0  0  0
   18.7991   12.1798    2.6968 H   0  0  0  0  0  0  0  0  0  0  0  0
   18.6831   15.0982    7.2002 H   0  0  0  0  0  0  0  0  0  0  0  0
   17.8559   16.6215    6.6200 H   0  0  0  0  0  0  0  0  0  0  0  0
   16.7428   15.2036    8.5014 H   0  0  0  0  0  0  0  0  0  0  0  0
   15.7481   15.8457    7.1505 H   0  0  0  0  0  0  0  0  0  0  0  0
   16.2582   14.1234    7.1505 H   0  0  0  0  0  0  0  0  0  0  0  0
   19.6002   13.8601    5.1282 H   0  0  0  0  0  0  0  0  0  0  0  0
   19.1199   14.7610    3.6222 H   0  0  0  0  0  0  0  0  0  0  0  0
   19.1834   17.3932    3.8106 H   0  0  0  0  0  0  0  0  0  0  0  0
   20.7711   19.2244    4.3852 H   0  0  0  0  0  0  0  0  0  0  0  0
   22.6537   18.7981    5.9661 H   0  0  0  0  0  0  0  0  0  0  0  0
   22.9484   16.5334    6.9647 H   0  0  0  0  0  0  0  0  0  0  0  0
   21.3812   14.6922    6.3745 H   0  0  0  0  0  0  0  0  0  0  0  0
  2  1  2  0
  3  1  2  0
  5  4  2  0
  6  5  1  0
  7  6  2  0
  8  7  1  0
  9  8  2  0
  9  4  1  0
  9  1  1  0
 10  7  1  0
 11 10  2  0
 12 10  1  0
 14  4  1  0
 14 13  1  0
 15  1  1  0
 16 15  1  0
 17 16  1  0
 18 15  1  0
 19 18  1  0
 20 19  2  0
 21 20  1  0
 22 21  2  0
 23 22  1  0
 24 19  1  0
 24 23  2  0
  5 25  1  0
  6 26  1  0
  8 27  1  0
 13 28  1  0
 13 29  1  0
 13 30  1  0
 16 31  1  0
 16 32  1  0
 17 33  1  0
 17 34  1  0
 17 35  1  0
 18 36  1  0
 18 37  1  0
 20 38  1  0
 21 39  1  0
 22 40  1  0
 23 41  1  0
 24 42  1  0
M  CHG  1  12  -1
M  END
$$$$
=
     RDKit          3D

 35 36  0  0  0  0  0  0  0  0999 V2000
   19.1850   14.1440    3.2680 O   0  0  0  0  0  0  0  0  0  0  0  0
   18.4850   14.9980    3.8000 C   0  0  0  0  0  0  0  0  0  0  0  0
   18.9630   16.1280    4.4490 N   0  0  0  0  0  0  0  0  0  0  0  0
   18.1000   16.9340    5.3020 C   0  0  0  0  0  0  0  0  0  0  0  0
   18.5760   18.3760    5.4000 C   0  0  0  0  0  0  0  0  0  0  0  0
   20.0280   18.4410    5.8540 C   0  0  0  0  0  0  0  0  0  0  0  0
   20.9280   17.6410    4.9140 C   0  0  1  0  0  0  0  0  0  0  0  0
   20.4160   16.2150    4.6940 C   0  0  0  0  0  0  0  0  0  0  0  0
   20.9300   18.2880    3.6990 F   0  0  0  0  0  0  0  0  0  0  0  0
   22.3980   17.5790    5.4230 C   0  0  0  0  0  0  0  0  0  0  0  0
   22.5980   16.9060    6.4770 O   0  0  0  0  0  0  0  0  0  0  0  0
   23.2470   18.2360    4.7490 O   0  0  0  0  0  1  0  0  0  0  0  0
   17.1240   14.9280    3.8140 O   0  0  0  0  0  0  0  0  0  0  0  0
   16.6040   13.7330    3.2290 C   0  0  0  0  0  0  0  0  0  0  0  0
   15.1080   13.6990    3.4400 C   0  0  0  0  0  0  0  0  0  0  0  0
   14.3390   12.6570    2.9020 C   0  0  0  0  0  0  0  0  0  0  0  0
   12.9600   12.6110    3.1100 C   0  0  0  0  0  0  0  0  0  0  0  0
   12.3350   13.6030    3.8630 C   0  0  0  0  0  0  0  0  0  0  0  0
   13.0900   14.6410    4.4080 C   0  0  0  0  0  0  0  0  0  0  0  0
   14.4700   14.6880    4.1990 C   0  0  0  0  0  0  0  0  0  0  0  0
   17.0816   16.9243    4.8863 H   0  0  0  0  0  0  0  0  0  0  0  0
   18.1231   16.5006    6.3128 H   0  0  0  0  0  0  0  0  0  0  0  0
   18.4860   18.8525    4.4127 H   0  0  0  0  0  0  0  0  0  0  0  0
   17.9535   18.9014    6.1393 H   0  0  0  0  0  0  0  0  0  0  0  0
   20.3567   19.4907    5.8611 H   0  0  0  0  0  0  0  0  0  0  0  0
   20.1009   18.0094    6.8632 H   0  0  0  0  0  0  0  0  0  0  0  0
   20.6516   15.6213    5.5895 H   0  0  0  0  0  0  0  0  0  0  0  0
   20.9137   15.8350    3.7896 H   0  0  0  0  0  0  0  0  0  0  0  0
   16.8258   13.7218    2.1517 H   0  0  0  0  0  0  0  0  0  0  0  0
   17.0681   12.8537    3.6996 H   0  0  0  0  0  0  0  0  0  0  0  0
   14.8274   11.8686    2.3105 H   0  0  0  0  0  0  0  0  0  0  0  0
   12.3661   11.7914    2.6794 H   0  0  0  0  0  0  0  0  0  0  0  0
   11.2479   13.5673    4.0272 H   0  0  0  0  0  0  0  0  0  0  0  0
   12.5978   15.4240    5.0035 H   0  0  0  0  0  0  0  0  0  0  0  0
   15.0603   15.5080    4.6338 H   0  0  0  0  0  0  0  0  0  0  0  0
  2  1  2  0
  3  2  1  0
  4  3  1  0
  5  4  1  0
  6  5  1  0
  7  6  1  0
  8  3  1  0
  8  7  1  0
  7  9  1  6
 10  7  1  0
 11 10  2  0
 12 10  1  0
 13  2  1  0
 14 13  1  0
 15 14  1  0
 16 15  2  0
 17 16  1  0
 18 17  2  0
 19 18  1  0
 20 19  2  0
 20 15  1  0
  4 21  1  0
  4 22  1  0
  5 23  1  0
  5 24  1  0
  6 25  1  0
  6 26  1  0
  8 27  1  0
  8 28  1  0
 14 29  1  0
 14 30  1  0
 16 31  1  0
 17 32  1  0
 18 33  1  0
 19 34  1  0
 20 35  1  0
M  CHG  1  12  -1
M  END
$$$$
=
     RDKit          3D

 29 31  0  0  0  0  0  0  0  0999 V2000
   18.3890   15.6820    4.8320 C   0  0  0  0  0  0  0  0  0  0  0  0
   18.8870   16.7340    4.2460 N   0  0  0  0  0  0  0  0  0  0  0  0
   20.1750   17.1570    4.6000 C   0  0  0  0  0  0  0  0  0  0  0  0
   20.7220   18.2660    3.9480 C   0  0  0  0  0  0  0  0  0  0  0  0
   22.0010   18.7280    4.2710 C   0  0  0  0  0  0  0  0  0  0  0  0
   22.7490   18.0810    5.2550 C   0  0  0  0  0  0  0  0  0  0  0  0
   22.2170   16.9750    5.9140 C   0  0  0  0  0  0  0  0  0  0  0  0
   20.9340   16.5210    5.5800 C   0  0  0  0  0  0  0  0  0  0  0  0
   20.3380   15.3560    6.2500 C   0  0  0  0  0  0  0  0  0  0  0  0
   20.9450   14.7820    7.1480 O   0  0  0  0  0  0  0  0  0  0  0  0
   19.0870   15.0040    5.8050 N   0  0  0  0  0  0  0  0  0  0  0  0
   16.6470   14.1210    3.6820 C   0  0  0  0  0  0  0  0  0  0  0  0
   15.2820   13.8950    3.3850 C   0  0  0  0  0  0  0  0  0  0  0  0
   14.2770   14.7310    3.8670 C   0  0  0  0  0  0  0  0  0  0  0  0
   14.6170   15.8220    4.6520 C   0  0  0  0  0  0  0  0  0  0  0  0
   15.9600   16.0700    4.9450 C   0  0  0  0  0  0  0  0  0  0  0  0
   16.9970   15.2330    4.4710 C   0  0  0  0  0  0  0  0  0  0  0  0
   17.1440   12.0640    2.6580 O   0  0  0  0  0  1  0  0  0  0  0  0
   17.6290   13.1450    3.1170 C   0  0  0  0  0  0  0  0  0  0  0  0
   18.8480   13.4880    3.1100 O   0  0  0  0  0  0  0  0  0  0  0  0
   20.1385   18.7815    3.1710 H   0  0  0  0  0  0  0  0  0  0  0  0
   22.4179   19.6020    3.7492 H   0  0  0  0  0  0  0  0  0  0  0  0
   23.7559   18.4432    5.5097 H   0  0  0  0  0  0  0  0  0  0  0  0
   22.8006   16.4610    6.6920 H   0  0  0  0  0  0  0  0  0  0  0  0
   18.6416   14.1772    6.2280 H   0  0  0  0  0  0  0  0  0  0  0  0
   15.0068   13.0355    2.7562 H   0  0  0  0  0  0  0  0  0  0  0  0
   13.2231   14.5272    3.6268 H   0  0  0  0  0  0  0  0  0  0  0  0
   13.8336   16.4885    5.0419 H   0  0  0  0  0  0  0  0  0  0  0  0
   16.2189   16.9424    5.5629 H   0  0  0  0  0  0  0  0  0  0  0  0
  2  1  2  0
  3  2  1  0
  4  3  2  0
  5  4  1  0
  6  5  2  0
  7  6  1  0
  8  3  1  0
  8  7  2  0
  9  8  1  0
 10  9  2  0
 11  1  1  0
 11  9  1  0
 13 12  2  0
 14 13  1  0
 15 14  2  0
 16 15  1  0
 17 16  2  0
 17 12  1  0
 17  1  1  0
 19 18  1  0
 19 12  1  0
 20 19  2  0
  4 21  1  0
  5 22  1  0
  6 23  1  0
  7 24  1  0
 11 25  1  0
 13 26  1  0
 14 27  1  0
 15 28  1  0
 16 29  1  0
M  CHG  1  18  -1
M  END
$$$$
=
     RDKit          3D

 33 35  0  0  0  0  0  0  0  0999 V2000
   17.7980   15.4250    4.2900 C   0  0  0  0  0  0  0  0  0  0  0  0
   18.1700   16.3240    3.3500 N   0  0  0  0  0  0  0  0  0  0  0  0
   19.3870   16.8900    3.4370 C   0  0  0  0  0  0  0  0  0  0  0  0
   19.7410   17.7900    2.4400 C   0  0  0  0  0  0  0  0  0  0  0  0
   20.9830   18.4250    2.4160 C   0  0  0  0  0  0  0  0  0  0  0  0
   21.9040   18.1540    3.4150 C   0  0  0  0  0  0  0  0  0  0  0  0
   21.5720   17.2550    4.4280 C   0  0  0  0  0  0  0  0  0  0  0  0
   20.3100   16.6110    4.4700 C   0  0  0  0  0  0  0  0  0  0  0  0
   19.9020   15.6870    5.4640 C   0  0  0  0  0  0  0  0  0  0  0  0
   18.6310   15.0990    5.3510 C   0  0  0  0  0  0  0  0  0  0  0  0
   13.8880   13.6500    3.7380 C   0  0  0  0  0  0  0  0  0  0  0  0
   14.0510   14.7340    4.5990 C   0  0  0  0  0  0  0  0  0  0  0  0
   15.3200   15.3080    4.7790 C   0  0  0  0  0  0  0  0  0  0  0  0
   16.4580   14.8250    4.1050 C   0  0  0  0  0  0  0  0  0  0  0  0
   16.2730   13.7270    3.2500 C   0  0  0  0  0  0  0  0  0  0  0  0
   15.0120   13.1560    3.0730 C   0  0  0  0  0  0  0  0  0  0  0  0
   14.8940   12.1100    2.2390 F   0  0  0  0  0  0  0  0  0  0  0  0
   11.5120   13.7360    3.7190 C   0  0  0  0  0  0  0  0  0  0  0  0
   12.7080   13.0070    3.4800 O   0  0  0  0  0  0  0  0  0  0  0  0
   20.7480   15.2750    6.6460 C   0  0  0  0  0  0  0  0  0  0  0  0
   20.5760   14.0890    7.0710 O   0  0  0  0  0  0  0  0  0  0  0  0
   21.5360   16.1330    7.1500 O   0  0  0  0  0  1  0  0  0  0  0  0
   19.0169   18.0097    1.6416 H   0  0  0  0  0  0  0  0  0  0  0  0
   21.2287   19.1340    1.6117 H   0  0  0  0  0  0  0  0  0  0  0  0
   22.8889   18.6439    3.4091 H   0  0  0  0  0  0  0  0  0  0  0  0
   22.3092   17.0399    5.2156 H   0  0  0  0  0  0  0  0  0  0  0  0
   18.2941   14.3757    6.1082 H   0  0  0  0  0  0  0  0  0  0  0  0
   13.1833   15.1409    5.1389 H   0  0  0  0  0  0  0  0  0  0  0  0
   15.4281   16.1598    5.4666 H   0  0  0  0  0  0  0  0  0  0  0  0
   17.1362   13.3099    2.7107 H   0  0  0  0  0  0  0  0  0  0  0  0
   11.3523   13.8333    4.8030 H   0  0  0  0  0  0  0  0  0  0  0  0
   11.5963   14.7364    3.2695 H   0  0  0  0  0  0  0  0  0  0  0  0
   10.6614   13.2026    3.2695 H   0  0  0  0  0  0  0  0  0  0  0  0
  2  1  2  0
  3  2  1  0
  4  3  2  0
  5  4  1  0
  6  5  2  0
  7  6  1  0
  8  7  2  0
  8  3  1  0
  9  8  1  0
 10  1  1  0
 10  9  2  0
 12 11  2  0
 13 12  1  0
 14 13  2  0
 14  1  1  0
 15 14  1  0
 16 15  2  0
 16 11  1  0
 17 16  1  0
 19 18  1  0
 19 11  1  0
 20  9  1  0
 21 20  2  0
 22 20  1  0
  4 23  1  0
  5 24  1  0
  6 25  1  0
  7 26  1  0
 10 27  1  0
 12 28  1  0
 13 29  1  0
 15 30  1  0
 18 31  1  0
 18 32  1  0
 18 33  1  0
M  CHG  1  22  -1
M  END
$$$$
=
     RDKit          3D

 32 33  0  0  0  0  0  0  0  0999 V2000
   13.9270   13.9360    4.1520 C   0  0  2  0  0  0  0  0  0  0  0  0
   14.3980   15.3660    4.3400 C   0  0  0  0  0  0  0  0  0  0  0  0
   16.1320   15.3680    4.9120 S   0  0  0  0  0  0  0  0  0  0  0  0
   16.8740   14.4420    3.5200 C   0  0  2  0  0  0  0  0  0  0  0  0
   16.0990   13.2010    3.0620 C   0  0  0  0  0  0  0  0  0  0  0  0
   16.6500   12.2830    2.4450 O   0  0  0  0  0  0  0  0  0  0  0  0
   14.7430   13.1900    3.1720 N   0  0  0  0  0  0  0  0  0  0  0  0
   12.1140   13.0590    2.8900 O   0  0  0  0  0  1  0  0  0  0  0  0
   12.4050   13.8920    3.8030 C   0  0  0  0  0  0  0  0  0  0  0  0
   11.6500   14.6680    4.4480 O   0  0  0  0  0  0  0  0  0  0  0  0
   18.3730   14.1540    3.7440 C   0  0  0  0  0  0  0  0  0  0  0  0
   19.2940   15.3480    3.8930 C   0  0  0  0  0  0  0  0  0  0  0  0
   19.1680   16.4620    3.0550 C   0  0  0  0  0  0  0  0  0  0  0  0
   20.0210   17.5610    3.1930 C   0  0  0  0  0  0  0  0  0  0  0  0
   21.0100   17.5710    4.1820 C   0  0  0  0  0  0  0  0  0  0  0  0
   21.1480   16.4560    5.0150 C   0  0  0  0  0  0  0  0  0  0  0  0
   20.2940   15.3580    4.8760 C   0  0  0  0  0  0  0  0  0  0  0  0
   21.9550   18.7290    4.2980 C   0  0  0  0  0  0  0  0  0  0  0  0
   14.0676   13.4201    5.1133 H   0  0  0  0  0  0  0  0  0  0  0  0
   14.3273   15.9037    3.3830 H   0  0  0  0  0  0  0  0  0  0  0  0
   13.7651   15.8641    5.0892 H   0  0  0  0  0  0  0  0  0  0  0  0
   16.7890   15.1304    2.6663 H   0  0  0  0  0  0  0  0  0  0  0  0
   14.2312   12.5992    2.5012 H   0  0  0  0  0  0  0  0  0  0  0  0
   18.4608   13.5523    4.6606 H   0  0  0  0  0  0  0  0  0  0  0  0
   18.7057   13.6532    2.8229 H   0  0  0  0  0  0  0  0  0  0  0  0
   18.3887   16.4729    2.2788 H   0  0  0  0  0  0  0  0  0  0  0  0
   19.9136   18.4238    2.5192 H   0  0  0  0  0  0  0  0  0  0  0  0
   21.9338   16.4430    5.7847 H   0  0  0  0  0  0  0  0  0  0  0  0
   20.4077   14.4923    5.5451 H   0  0  0  0  0  0  0  0  0  0  0  0
   22.1354   18.9501    5.3604 H   0  0  0  0  0  0  0  0  0  0  0  0
   22.9073   18.4755    3.8094 H   0  0  0  0  0  0  0  0  0  0  0  0
   21.5157   19.6112    3.8094 H   0  0  0  0  0  0  0  0  0  0  0  0
  2  1  1  0
  3  2  1  0
  4  3  1  0
  5  4  1  0
  6  5  2  0
  7  5  1  0
  7  1  1  0
  9  8  1  0
  9  1  1  0
 10  9  2  0
 11  4  1  0
 12 11  1  0
 13 12  2  0
 14 13  1  0
 15 14  2  0
 16 15  1  0
 17 12  1  0
 17 16  2  0
 18 15  1  0
  1 19  1  1
  2 20  1  0
  2 21  1  0
  4 22  1  6
  7 23  1  0
 11 24  1  0
 11 25  1  0
 13 26  1  0
 14 27  1  0
 16 28  1  0
 17 29  1  0
 18 30  1  0
 18 31  1  0
 18 32  1  0
M  CHG  1   8  -1
M  END
$$$$
=
     RDKit          3D

 55 58  0  0  0  0  0  0  0  0999 V2000
   13.5860   13.4830    3.3830 O   0  0  0  0  0  0  0  0  0  0  0  0
   14.6570   14.1610    3.8890 C   0  0  0  0  0  0  0  0  0  0  0  0
   15.8460   13.9700    3.1850 C   0  0  0  0  0  0  0  0  0  0  0  0
   17.0240   14.5970    3.5970 C   0  0  0  0  0  0  0  0  0  0  0  0
   17.0290   15.4370    4.7200 C   0  0  0  0  0  0  0  0  0  0  0  0
   15.8260   15.6320    5.4150 C   0  0  0  0  0  0  0  0  0  0  0  0
   14.6460   15.0030    4.9980 C   0  0  0  0  0  0  0  0  0  0  0  0
   18.3300   16.0630    5.1810 C   0  0  1  0  0  0  0  0  0  0  0  0
   19.1250   15.0890    5.8900 O   0  0  0  0  0  0  0  0  0  0  0  0
   20.3920   15.4050    6.2660 C   0  0  0  0  0  0  0  0  0  0  0  0
   21.0150   14.7370    7.0790 O   0  0  0  0  0  0  0  0  0  0  0  0
   21.0070   16.5920    5.6120 C   0  0  0  0  0  0  0  0  0  0  0  0
   20.3990   17.1880    4.4990 C   0  0  0  0  0  0  0  0  0  0  0  0
   19.1080   16.6160    3.9870 C   0  0  0  0  0  0  0  0  0  0  0  0
   21.0190   18.2700    3.8640 C   0  0  0  0  0  0  0  0  0  0  0  0
   22.2280   18.7660    4.3530 C   0  0  0  0  0  0  0  0  0  0  0  0
   22.8290   18.1790    5.4670 C   0  0  0  0  0  0  0  0  0  0  0  0
   22.2240   17.0890    6.0930 C   0  0  0  0  0  0  0  0  0  0  0  0
   12.2970   13.8500    3.8630 C   0  0  0  0  0  0  0  0  0  0  0  0
   11.4690   12.2230    2.2900 O   0  0  0  0  0  0  0  0  0  0  0  0
   11.2090   13.0040    3.2040 C   0  0  0  0  0  0  0  0  0  0  0  0
    9.9470   13.2650    3.6650 N   0  0  0  0  0  0  0  0  0  0  0  0
    8.7230   12.5030    3.3190 C   0  0  1  0  0  0  0  0  0  0  0  0
    7.7980   12.3620    4.5810 C   0  0  0  0  0  0  0  0  0  0  0  0
    8.2030   12.8840    5.6550 O   0  0  0  0  0  0  0  0  0  0  0  0
    6.7200   11.7210    4.3560 O   0  0  0  0  0  1  0  0  0  0  0  0
    7.9440   13.1790    2.1800 C   0  0  0  0  0  0  0  0  0  0  0  0
    8.0940   12.4750    0.8460 C   0  0  0  0  0  0  0  0  0  0  0  0
    7.6620   13.0920   -0.3350 C   0  0  0  0  0  0  0  0  0  0  0  0
    7.7930   12.4420   -1.5640 C   0  0  0  0  0  0  0  0  0  0  0  0
    8.3540   11.1680   -1.6230 C   0  0  0  0  0  0  0  0  0  0  0  0
    8.7750   10.5390   -0.4520 C   0  0  0  0  0  0  0  0  0  0  0  0
    8.6430   11.1890    0.7760 C   0  0  0  0  0  0  0  0  0  0  0  0
   15.8559   13.3199    2.2977 H   0  0  0  0  0  0  0  0  0  0  0  0
   17.9555   14.4306    3.0361 H   0  0  0  0  0  0  0  0  0  0  0  0
   15.8092   16.2871    6.2985 H   0  0  0  0  0  0  0  0  0  0  0  0
   13.7088   15.1745    5.5477 H   0  0  0  0  0  0  0  0  0  0  0  0
   18.0992   16.8954    5.8621 H   0  0  0  0  0  0  0  0  0  0  0  0
   19.3160   15.8079    3.2703 H   0  0  0  0  0  0  0  0  0  0  0  0
   18.5216   17.3937    3.4758 H   0  0  0  0  0  0  0  0  0  0  0  0
   20.5533   18.7293    2.9796 H   0  0  0  0  0  0  0  0  0  0  0  0
   22.7090   19.6228    3.8585 H   0  0  0  0  0  0  0  0  0  0  0  0
   23.7801   18.5758    5.8517 H   0  0  0  0  0  0  0  0  0  0  0  0
   22.7034   16.6199    6.9648 H   0  0  0  0  0  0  0  0  0  0  0  0
   12.2614   13.6980    4.9519 H   0  0  0  0  0  0  0  0  0  0  0  0
   12.1179   14.9070    3.6167 H   0  0  0  0  0  0  0  0  0  0  0  0
    9.8379   14.0612    4.3093 H   0  0  0  0  0  0  0  0  0  0  0  0
    9.0352   11.5049    2.9778 H   0  0  0  0  0  0  0  0  0  0  0  0
    6.8773   13.1938    2.4482 H   0  0  0  0  0  0  0  0  0  0  0  0
    8.3574   14.1914    2.0607 H   0  0  0  0  0  0  0  0  0  0  0  0
    7.2160   14.0967   -0.2940 H   0  0  0  0  0  0  0  0  0  0  0  0
    7.4531   12.9361   -2.4861 H   0  0  0  0  0  0  0  0  0  0  0  0
    8.4646   10.6592   -2.5919 H   0  0  0  0  0  0  0  0  0  0  0  0
    9.2113    9.5302   -0.4960 H   0  0  0  0  0  0  0  0  0  0  0  0
    8.9733   10.6864    1.6971 H   0  0  0  0  0  0  0  0  0  0  0  0
  2  1  1  0
  3  2  2  0
  4  3  1  0
  5  4  2  0
  6  5  1  0
  7  6  2  0
  7  2  1  0
  8  5  1  0
  9  8  1  0
 10  9  1  0
 11 10  2  0
 12 10  1  0
 13 12  2  0
 14  8  1  0
 14 13  1  0
 15 13  1  0
 16 15  2  0
 17 16  1  0
 18 12  1  0
 18 17  2  0
 19  1  1  0
 21 20  2  0
 21 19  1  0
 22 21  1  0
 23 22  1  0
 24 23  1  0
 25 24  2  0
 26 24  1  0
 27 23  1  0
 28 27  1  0
 29 28  2  0
 30 29  1  0
 31 30  2  0
 32 31  1  0
 33 32  2  0
 33 28  1  0
  3 34  1  0
  4 35  1  0
  6 36  1  0
  7 37  1  0
  8 38  1  1
 14 39  1  0
 14 40  1  0
 15 41  1  0
 16 42  1  0
 17 43  1  0
 18 44  1  0
 19 45  1  0
 19 46  1  0
 22 47  1  0
 23 48  1  6
 27 49  1  0
 27 50  1  0
 29 51  1  0
 30 52  1  0
 31 53  1  0
 32 54  1  0
 33 55  1  0
M  CHG  1  26  -1
M  END
$$$$
=
     RDKit          3D

 15 15  0  0  0  0  0  0  0  0999 V2000
   22.0920   19.0940    3.9060 F   0  0  0  0  0  0  0  0  0  0  0  0
   21.2440   18.0560    3.8880 C   0  0  0  0  0  0  0  0  0  0  0  0
   20.3720   17.9060    2.8250 C   0  0  0  0  0  0  0  0  0  0  0  0
   19.4930   16.8240    2.8160 C   0  0  0  0  0  0  0  0  0  0  0  0
   19.4720   15.8740    3.8660 C   0  0  0  0  0  0  0  0  0  0  0  0
   20.3700   16.0510    4.9420 C   0  0  0  0  0  0  0  0  0  0  0  0
   21.2500   17.1480    4.9390 C   0  0  0  0  0  0  0  0  0  0  0  0
   18.4810   14.7270    3.7580 C   0  0  0  0  0  0  0  0  0  0  0  0
   17.3110   14.9380    4.2120 O   0  0  0  0  0  0  0  0  0  0  0  0
   18.8710   13.6480    3.2120 O   0  0  0  0  0  1  0  0  0  0  0  0
   20.4740   14.9910    6.3850 S   0  0  0  0  0  0  0  0  0  0  0  0
   20.3720   18.6309    1.9976 H   0  0  0  0  0  0  0  0  0  0  0  0
   18.7980   16.7051    1.9717 H   0  0  0  0  0  0  0  0  0  0  0  0
   21.9493   17.2882    5.7765 H   0  0  0  0  0  0  0  0  0  0  0  0
   20.3990   15.7554    7.5195 H   0  0  0  0  0  0  0  0  0  0  0  0
  2  1  1  0
  3  2  2  0
  4  3  1  0
  5  4  2  0
  6  5  1  0
  7  6  2  0
  7  2  1  0
  8  5  1  0
  9  8  2  0
 10  8  1  0
 11  6  1  0
  3 12  1  0
  4 13  1  0
  7 14  1  0
 11 15  1  0
M  CHG  1  10  -1
M  END
$$$$
=
     RDKit          3D

 33 35  0  0  0  0  0  0  0  0999 V2000
   18.0960   12.6230    3.2280 C   0  0  0  0  0  0  0  0  0  0  0  0
   16.8090   13.3600    2.8700 C   0  0  1  0  0  0  0  0  0  0  0  0
   15.6890   12.3670    2.4730 C   0  0  0  0  0  0  0  0  0  0  0  0
   14.4970   13.0070    3.1010 C   0  0  0  0  0  0  0  0  0  0  0  0
   14.9160   14.0140    3.9750 C   0  0  0  0  0  0  0  0  0  0  0  0
   16.3130   14.1310    4.0280 N   0  0  0  0  0  0  0  0  0  0  0  0
   13.9710   14.7340    4.6870 C   0  0  0  0  0  0  0  0  0  0  0  0
   12.6140   14.4430    4.5080 C   0  0  0  0  0  0  0  0  0  0  0  0
   12.2090   13.4290    3.6290 C   0  0  0  0  0  0  0  0  0  0  0  0
   13.1580   12.6960    2.9180 C   0  0  0  0  0  0  0  0  0  0  0  0
   16.9140   15.4510    4.3130 C   0  0  0  0  0  0  0  0  0  0  0  0
   18.2750   15.5160    4.9420 C   0  0  0  0  0  0  0  0  0  0  0  0
   18.5110   14.8270    6.1040 O   0  0  0  0  0  0  0  0  0  0  0  0
   19.8070   15.0500    6.4460 C   0  0  0  0  0  0  0  0  0  0  0  0
   20.4180   15.8770    5.5350 C   0  0  0  0  0  0  0  0  0  0  0  0
   19.4300   16.1760    4.5690 C   0  0  0  0  0  0  0  0  0  0  0  0
   19.6070   17.0800    3.3120 C   0  0  0  0  0  0  0  0  0  0  0  0
   19.6150   18.3310    3.5150 O   0  0  0  0  0  0  0  0  0  0  0  0
   19.7240   16.4820    2.1990 O   0  0  0  0  0  1  0  0  0  0  0  0
   18.1941   12.5668    4.3222 H   0  0  0  0  0  0  0  0  0  0  0  0
   18.0646   11.6060    2.8100 H   0  0  0  0  0  0  0  0  0  0  0  0
   18.9572   13.1648    2.8100 H   0  0  0  0  0  0  0  0  0  0  0  0
   17.0472   14.0257    2.0274 H   0  0  0  0  0  0  0  0  0  0  0  0
   15.5805   12.2978    1.3806 H   0  0  0  0  0  0  0  0  0  0  0  0
   15.8684   11.3314    2.7976 H   0  0  0  0  0  0  0  0  0  0  0  0
   14.2834   15.5250    5.3847 H   0  0  0  0  0  0  0  0  0  0  0  0
   11.8569   15.0162    5.0631 H   0  0  0  0  0  0  0  0  0  0  0  0
   11.1386   13.2109    3.4998 H   0  0  0  0  0  0  0  0  0  0  0  0
   12.8531   11.8930    2.2308 H   0  0  0  0  0  0  0  0  0  0  0  0
   16.9766   15.9890    3.3556 H   0  0  0  0  0  0  0  0  0  0  0  0
   16.2513   15.8800    5.0791 H   0  0  0  0  0  0  0  0  0  0  0  0
   20.3004   14.6255    7.3328 H   0  0  0  0  0  0  0  0  0  0  0  0
   21.4588   16.2324    5.5533 H   0  0  0  0  0  0  0  0  0  0  0  0
  2  1  1  0
  3  2  1  0
  4  3  1  0
  5  4  2  0
  6  5  1  0
  6  2  1  0
  7  5  1  0
  8  7  2  0
  9  8  1  0
 10  9  2  0
 10  4  1  0
 11  6  1  0
 12 11  1  0
 13 12  1  0
 14 13  1  0
 15 14  2  0
 16 12  2  0
 16 15  1  0
 17 16  1  0
 18 17  2  0
 19 17  1  0
  1 20  1  0
  1 21  1  0
  1 22  1  0
  2 23  1  6
  3 24  1  0
  3 25  1  0
  7 26  1  0
  8 27  1  0
  9 28  1  0
 10 29  1  0
 11 30  1  0
 11 31  1  0
 14 32  1  0
 15 33  1  0
M  CHG  1  19  -1
M  END
$$$$
=
     RDKit          3D

 44 45  0  0  0  0  0  0  0  0999 V2000
   30.4860   26.2850   14.1940 O   0  0  0  0  0  0  0  0  0  0  0  0
   29.2940   26.4560   14.4320 C   0  0  0  0  0  0  0  0  0  0  0  0
   28.2710   25.9850   13.6280 N   0  0  0  0  0  0  0  0  0  0  0  0
   28.5870   25.1630   12.4720 C   0  0  0  0  0  0  0  0  0  0  0  0
   27.6000   24.0210   12.2740 C   0  0  0  0  0  0  0  0  0  0  0  0
   26.1420   24.4860   12.2110 C   0  0  0  0  0  0  0  0  0  0  0  0
   25.9370   25.9090   12.7540 C   0  0  2  0  0  0  0  0  0  0  0  0
   26.8300   26.2020   13.9800 C   0  0  1  0  0  0  0  0  0  0  0  0
   26.3600   25.4550   15.2730 C   0  0  0  0  0  0  0  0  0  0  0  0
   25.6060   26.1310   16.0350 O   0  0  0  0  0  0  0  0  0  0  0  0
   26.7590   24.2620   15.4080 O   0  0  0  0  0  1  0  0  0  0  0  0
   24.4570   26.3200   12.9120 C   0  0  0  0  0  0  0  0  0  0  0  0
   23.6180   26.2750   11.6670 C   0  0  0  0  0  0  0  0  0  0  0  0
   22.3080   27.0190   11.5840 C   0  0  0  0  0  0  0  0  0  0  0  0
   22.3130   25.5190   11.6820 C   0  0  0  0  0  0  0  0  0  0  0  0
   28.8270   27.1590   15.4920 O   0  0  0  0  0  0  0  0  0  0  0  0
   29.0500   28.5810   15.6260 C   0  0  0  0  0  0  0  0  0  0  0  0
   28.7180   29.3200   14.3260 C   0  0  0  0  0  0  0  0  0  0  0  0
   28.0630   29.0300   16.7140 C   0  0  0  0  0  0  0  0  0  0  0  0
   30.4750   28.8780   16.1070 C   0  0  0  0  0  0  0  0  0  0  0  0
   28.5740   25.7987   11.5744 H   0  0  0  0  0  0  0  0  0  0  0  0
   29.5787   24.7185   12.6422 H   0  0  0  0  0  0  0  0  0  0  0  0
   27.8440   23.5077   11.3322 H   0  0  0  0  0  0  0  0  0  0  0  0
   27.6928   23.3549   13.1445 H   0  0  0  0  0  0  0  0  0  0  0  0
   25.8120   24.4611   11.1620 H   0  0  0  0  0  0  0  0  0  0  0  0
   25.5541   23.8061   12.8451 H   0  0  0  0  0  0  0  0  0  0  0  0
   26.2949   26.5901   11.9678 H   0  0  0  0  0  0  0  0  0  0  0  0
   26.7215   27.2641   14.2450 H   0  0  0  0  0  0  0  0  0  0  0  0
   23.9986   25.6451   13.6498 H   0  0  0  0  0  0  0  0  0  0  0  0
   24.4766   27.3773   13.2148 H   0  0  0  0  0  0  0  0  0  0  0  0
   24.5329   26.2580   11.0566 H   0  0  0  0  0  0  0  0  0  0  0  0
   21.9647   27.6244   12.4358 H   0  0  0  0  0  0  0  0  0  0  0  0
   21.8726   27.7510   10.8878 H   0  0  0  0  0  0  0  0  0  0  0  0
   21.9732   25.0274   12.6055 H   0  0  0  0  0  0  0  0  0  0  0  0
   21.8826   24.7000   11.0870 H   0  0  0  0  0  0  0  0  0  0  0  0
   28.2778   30.2998   14.5633 H   0  0  0  0  0  0  0  0  0  0  0  0
   29.6381   29.4635   13.7406 H   0  0  0  0  0  0  0  0  0  0  0  0
   27.9996   28.7274   13.7406 H   0  0  0  0  0  0  0  0  0  0  0  0
   28.4960   28.8330   17.7058 H   0  0  0  0  0  0  0  0  0  0  0  0
   27.8650   30.1068   16.6077 H   0  0  0  0  0  0  0  0  0  0  0  0
   27.1212   28.4717   16.6077 H   0  0  0  0  0  0  0  0  0  0  0  0
   30.4973   28.8826   17.2068 H   0  0  0  0  0  0  0  0  0  0  0  0
   31.1584   28.1030   15.7297 H   0  0  0  0  0  0  0  0  0  0  0  0
   30.7918   29.8615   15.7297 H   0  0  0  0  0  0  0  0  0  0  0  0
  2  1  2  0
  3  2  1  0
  4  3  1  0
  5  4  1  0
  6  5  1  0
  7  6  1  0
  8  7  1  0
  8  3  1  0
  9  8  1  0
 10  9  2  0
 11  9  1  0
 12  7  1  0
 13 12  1  0
 14 13  1  0
 15 14  1  0
 15 13  1  0
 16  2  1  0
 17 16  1  0
 18 17  1  0
 19 17  1  0
 20 17  1  0
  4 21  1  0
  4 22  1  0
  5 23  1  0
  5 24  1  0
  6 25  1  0
  6 26  1  0
  7 27  1  6
  8 28  1  1
 12 29  1  0
 12 30  1  0
 13 31  1  0
 14 32  1  0
 14 33  1  0
 15 34  1  0
 15 35  1  0
 18 36  1  0
 18 37  1  0
 18 38  1  0
 19 39  1  0
 19 40  1  0
 19 41  1  0
 20 42  1  0
 20 43  1  0
 20 44  1  0
M  CHG  1  11  -1
M  END
$$$$
=
     RDKit          3D

 31 31  0  0  0  0  0  0  0  0999 V2000
   18.3580   15.3380    3.8820 C   0  0  0  0  0  0  0  0  0  0  0  0
   18.9690   14.5200    3.1950 O   0  0  0  0  0  0  0  0  0  0  0  0
   18.9560   16.2650    4.6990 N   0  0  0  0  0  0  0  0  0  0  0  0
   14.4180   12.9010    3.7760 O   0  0  0  0  0  0  0  0  0  0  0  0
   15.0910   13.8920    3.9990 C   0  0  0  0  0  0  0  0  0  0  0  0
   14.8220   14.9350    5.0500 C   0  0  0  0  0  0  0  0  0  0  0  0
   16.1820   15.6080    5.2070 C   0  0  0  0  0  0  0  0  0  0  0  0
   16.8280   15.4660    3.8350 C   0  0  2  0  0  0  0  0  0  0  0  0
   16.2090   14.2770    3.3000 N   0  0  0  0  0  0  0  0  0  0  0  0
   20.3660   16.1890    5.1430 C   0  0  2  0  0  0  0  0  0  0  0  0
   20.4620   15.3110    6.4460 C   0  0  0  0  0  0  0  0  0  0  0  0
   19.6660   14.3390    6.5370 O   0  0  0  0  0  0  0  0  0  0  0  0
   21.3570   15.7200    7.2570 O   0  0  0  0  0  1  0  0  0  0  0  0
   20.9900   17.5800    5.3840 C   0  0  0  0  0  0  0  0  0  0  0  0
   21.9180   17.9970    4.2390 C   0  0  0  0  0  0  0  0  0  0  0  0
   19.9380   18.6700    5.6190 C   0  0  0  0  0  0  0  0  0  0  0  0
   18.3892   17.0618    5.0227 H   0  0  0  0  0  0  0  0  0  0  0  0
   14.0605   15.6529    4.7112 H   0  0  0  0  0  0  0  0  0  0  0  0
   14.4291   14.5184    5.9892 H   0  0  0  0  0  0  0  0  0  0  0  0
   16.0643   16.6683    5.4752 H   0  0  0  0  0  0  0  0  0  0  0  0
   16.7867   15.1559    6.0069 H   0  0  0  0  0  0  0  0  0  0  0  0
   16.6704   16.3625    3.2174 H   0  0  0  0  0  0  0  0  0  0  0  0
   16.5685   13.7696    2.4789 H   0  0  0  0  0  0  0  0  0  0  0  0
   20.9437   15.7210    4.3323 H   0  0  0  0  0  0  0  0  0  0  0  0
   21.5843   17.4794    6.3041 H   0  0  0  0  0  0  0  0  0  0  0  0
   22.8473   18.4146    4.6538 H   0  0  0  0  0  0  0  0  0  0  0  0
   22.1547   17.1187    3.6205 H   0  0  0  0  0  0  0  0  0  0  0  0
   21.4184   18.7572    3.6205 H   0  0  0  0  0  0  0  0  0  0  0  0
   19.7968   18.8163    6.7000 H   0  0  0  0  0  0  0  0  0  0  0  0
   20.2774   19.6116    5.1628 H   0  0  0  0  0  0  0  0  0  0  0  0
   18.9849   18.3642    5.1628 H   0  0  0  0  0  0  0  0  0  0  0  0
  2  1  2  0
  3  1  1  0
  5  4  2  0
  6  5  1  0
  7  6  1  0
  8  7  1  0
  8  1  1  0
  9  5  1  0
  9  8  1  0
 10  3  1  0
 11 10  1  0
 12 11  2  0
 13 11  1  0
 14 10  1  0
 15 14  1  0
 16 14  1  0
  3 17  1  0
  6 18  1  0
  6 19  1  0
  7 20  1  0
  7 21  1  0
  8 22  1  6
  9 23  1  0
 10 24  1  6
 14 25  1  0
 15 26  1  0
 15 27  1  0
 15 28  1  0
 16 29  1  0
 16 30  1  0
 16 31  1  0
M  CHG  1  13  -1
M  END
$$$$
=
     RDKit          3D

 35 35  0  0  0  0  0  0  0  0999 V2000
   17.3300   14.2000    3.5220 N   0  0  0  0  0  0  0  0  0  0  0  0
   16.7790   13.0780    3.0040 C   0  0  0  0  0  0  0  0  0  0  0  0
   17.3730   12.0340    2.7810 O   0  0  0  0  0  0  0  0  0  0  0  0
   18.7260   14.3000    3.8900 C   0  0  0  0  0  0  0  0  0  0  0  0
   20.3770   15.9730    4.4720 N   0  0  0  0  0  0  0  0  0  0  0  0
   19.0380   15.7270    4.3400 C   0  0  0  0  0  0  0  0  0  0  0  0
   18.1520   16.5570    4.5450 O   0  0  0  0  0  0  0  0  0  0  0  0
   21.7080   17.9950    3.9850 C   0  0  0  0  0  0  0  0  0  0  0  0
   20.9510   17.2060    5.0450 C   0  0  2  0  0  0  0  0  0  0  0  0
   21.9150   16.8720    6.2330 C   0  0  0  0  0  0  0  0  0  0  0  0
   21.5930   15.9000    6.9690 O   0  0  0  0  0  0  0  0  0  0  0  0
   22.9310   17.6380    6.2920 O   0  0  0  0  0  1  0  0  0  0  0  0
   15.4620   13.2910    2.7730 O   0  0  0  0  0  0  0  0  0  0  0  0
   14.7470   13.7330    3.9280 C   0  0  0  0  0  0  0  0  0  0  0  0
   13.2650   13.5380    3.7080 C   0  0  0  0  0  0  0  0  0  0  0  0
   12.7980   12.5660    2.8100 C   0  0  0  0  0  0  0  0  0  0  0  0
   11.4290   12.4040    2.5870 C   0  0  0  0  0  0  0  0  0  0  0  0
   10.5130   13.2180    3.2510 C   0  0  0  0  0  0  0  0  0  0  0  0
   10.9650   14.1940    4.1370 C   0  0  0  0  0  0  0  0  0  0  0  0
   12.3330   14.3560    4.3620 C   0  0  0  0  0  0  0  0  0  0  0  0
   16.7265   15.0230    3.6612 H   0  0  0  0  0  0  0  0  0  0  0  0
   18.9382   13.6021    4.7133 H   0  0  0  0  0  0  0  0  0  0  0  0
   19.3513   14.0466    3.0212 H   0  0  0  0  0  0  0  0  0  0  0  0
   21.0312   15.2461    4.1485 H   0  0  0  0  0  0  0  0  0  0  0  0
   22.3900   18.7059    4.4744 H   0  0  0  0  0  0  0  0  0  0  0  0
   22.2885   17.3027    3.3575 H   0  0  0  0  0  0  0  0  0  0  0  0
   20.9923   18.5463    3.3575 H   0  0  0  0  0  0  0  0  0  0  0  0
   20.1171   17.8174    5.4202 H   0  0  0  0  0  0  0  0  0  0  0  0
   15.0677   13.1492    4.8034 H   0  0  0  0  0  0  0  0  0  0  0  0
   14.9547   14.7991    4.1021 H   0  0  0  0  0  0  0  0  0  0  0  0
   13.5166   11.9261    2.2771 H   0  0  0  0  0  0  0  0  0  0  0  0
   11.0734   11.6336    1.8870 H   0  0  0  0  0  0  0  0  0  0  0  0
    9.4346   13.0902    3.0759 H   0  0  0  0  0  0  0  0  0  0  0  0
   10.2425   14.8378    4.6599 H   0  0  0  0  0  0  0  0  0  0  0  0
   12.6828   15.1322    5.0585 H   0  0  0  0  0  0  0  0  0  0  0  0
  2  1  1  0
  3  2  2  0
  4  1  1  0
  6  5  1  0
  6  4  1  0
  7  6  2  0
  9  5  1  0
  9  8  1  0
 10  9  1  0
 11 10  2  0
 12 10  1  0
 13  2  1  0
 14 13  1  0
 15 14  1  0
 16 15  2  0
 17 16  1  0
 18 17  2  0
 19 18  1  0
 20 19  2  0
 20 15  1  0
  1 21  1  0
  4 22  1  0
  4 23  1  0
  5 24  1  0
  8 25  1  0
  8 26  1  0
  8 27  1  0
  9 28  1  1
 14 29  1  0
 14 30  1  0
 16 31  1  0
 17 32  1  0
 18 33  1  0
 19 34  1  0
 20 35  1  0
M  CHG  1  12  -1
M  END
$$$$
=
     RDKit          3D

 39 39  0  0  0  0  0  0  0  0999 V2000
   15.7930   15.4180    4.1600 C   0  0  0  0  0  0  0  0  0  0  0  0
   14.4320   15.4790    4.4930 C   0  0  0  0  0  0  0  0  0  0  0  0
   13.5500   14.4120    4.2240 C   0  0  0  0  0  0  0  0  0  0  0  0
   14.0800   13.2740    3.6060 C   0  0  0  0  0  0  0  0  0  0  0  0
   15.4300   13.1900    3.2510 C   0  0  0  0  0  0  0  0  0  0  0  0
   16.2760   14.2710    3.5050 C   0  0  0  0  0  0  0  0  0  0  0  0
   13.2530   12.1220    3.3070 N   0  0  0  0  0  4  0  0  0  0  0  0
   13.3570   11.1440    4.0610 O   0  0  0  0  0  0  0  0  0  0  0  0
   12.4470   12.2340    2.3730 O   0  0  0  0  0  1  0  0  0  0  0  0
   16.6990   16.4070    4.4280 O   0  0  0  0  0  0  0  0  0  0  0  0
   16.7880   15.7620    6.7620 C   0  0  0  0  0  0  0  0  0  0  0  0
   16.8250   16.9030    5.7600 C   0  0  0  0  0  0  0  0  0  0  0  0
   12.0870   14.5910    4.5710 C   0  0  0  0  0  0  0  0  0  0  0  0
   11.6940   13.7320    5.7660 C   0  0  0  0  0  0  0  0  0  0  0  0
   10.2040   13.7920    6.0970 C   0  0  0  0  0  0  0  0  0  0  0  0
    9.4280   14.0720    5.1450 O   0  0  0  0  0  0  0  0  0  0  0  0
    9.9340   13.5310    7.3040 O   0  0  0  0  0  1  0  0  0  0  0  0
   17.5780   14.0740    3.1140 O   0  0  0  0  0  0  0  0  0  0  0  0
   18.4320   13.5980    4.1520 C   0  0  0  0  0  0  0  0  0  0  0  0
   19.5090   14.6270    4.4650 C   0  0  0  0  0  0  0  0  0  0  0  0
   19.9690   15.4540    3.6910 O   0  0  0  0  0  0  0  0  0  0  0  0
   19.8980   14.4900    5.7710 O   0  0  0  0  0  0  0  0  0  0  0  0
   20.9620   15.3630    6.1520 C   0  0  0  0  0  0  0  0  0  0  0  0
   14.0411   16.3855    4.9781 H   0  0  0  0  0  0  0  0  0  0  0  0
   15.8223   12.2791    2.7752 H   0  0  0  0  0  0  0  0  0  0  0  0
   16.8012   16.1703    7.7833 H   0  0  0  0  0  0  0  0  0  0  0  0
   15.8703   15.1738    6.6142 H   0  0  0  0  0  0  0  0  0  0  0  0
   17.6657   15.1156    6.6142 H   0  0  0  0  0  0  0  0  0  0  0  0
   15.9948   17.5939    5.9683 H   0  0  0  0  0  0  0  0  0  0  0  0
   17.7883   17.4257    5.8537 H   0  0  0  0  0  0  0  0  0  0  0  0
   11.9026   15.6481    4.8131 H   0  0  0  0  0  0  0  0  0  0  0  0
   11.4836   14.2798    3.7055 H   0  0  0  0  0  0  0  0  0  0  0  0
   11.9599   12.6875    5.5462 H   0  0  0  0  0  0  0  0  0  0  0  0
   12.2351   14.1259    6.6390 H   0  0  0  0  0  0  0  0  0  0  0  0
   17.8344   13.4119    5.0566 H   0  0  0  0  0  0  0  0  0  0  0  0
   18.9135   12.6665    3.8196 H   0  0  0  0  0  0  0  0  0  0  0  0
   21.0213   15.4116    7.2493 H   0  0  0  0  0  0  0  0  0  0  0  0
   21.9118   14.9806    5.7501 H   0  0  0  0  0  0  0  0  0  0  0  0
   20.7724   16.3692    5.7501 H   0  0  0  0  0  0  0  0  0  0  0  0
  2  1  2  0
  3  2  1  0
  4  3  2  0
  5  4  1  0
  6  5  2  0
  6  1  1  0
  7  4  1  0
  8  7  2  0
  9  7  1  0
 10  1  1  0
 12 11  1  0
 12 10  1  0
 13  3  1  0
 14 13  1  0
 15 14  1  0
 16 15  2  0
 17 15  1  0
 18  6  1  0
 19 18  1  0
 20 19  1  0
 21 20  2  0
 22 20  1  0
 23 22  1  0
  2 24  1  0
  5 25  1  0
 11 26  1  0
 11 27  1  0
 11 28  1  0
 12 29  1  0
 12 30  1  0
 13 31  1  0
 13 32  1  0
 14 33  1  0
 14 34  1  0
 19 35  1  0
 19 36  1  0
 23 37  1  0
 23 38  1  0
 23 39  1  0
M  CHG  3   7   1   9  -1  17  -1
M  END
$$$$
=
     RDKit          3D

 23 22  0  0  0  0  0  0  0  0999 V2000
   29.7480   26.1350   14.5290 S   0  0  0  0  0  0  0  0  0  0  0  0
   28.3420   25.2020   13.6530 C   0  0  2  0  0  0  0  0  0  0  0  0
   28.8140   23.5060   11.9540 O   0  0  0  0  0  1  0  0  0  0  0  0
   29.0390   23.8810   13.1510 C   0  0  0  0  0  0  0  0  0  0  0  0
   29.7940   23.2860   13.9900 O   0  0  0  0  0  0  0  0  0  0  0  0
   27.7520   26.0490   12.5220 C   0  0  0  0  0  0  0  0  0  0  0  0
   26.2430   25.9280   12.2640 C   0  0  0  0  0  0  0  0  0  0  0  0
   25.4510   26.5500   13.0290 O   0  0  0  0  0  0  0  0  0  0  0  0
   25.9230   25.2640   11.2210 O   0  0  0  0  0  1  0  0  0  0  0  0
   29.0020   26.5590   16.2240 C   0  0  2  0  0  0  0  0  0  0  0  0
   28.5740   25.1560   16.7960 C   0  0  0  0  0  0  0  0  0  0  0  0
   27.3220   24.9720   16.9690 O   0  0  0  0  0  0  0  0  0  0  0  0
   29.4920   24.3120   17.0600 O   0  0  0  0  0  1  0  0  0  0  0  0
   27.8350   27.5390   16.0740 C   0  0  0  0  0  0  0  0  0  0  0  0
   27.6570   28.5970   17.1730 C   0  0  0  0  0  0  0  0  0  0  0  0
   26.7270   28.3520   18.0140 O   0  0  0  0  0  0  0  0  0  0  0  0
   28.3610   29.6460   17.1170 O   0  0  0  0  0  1  0  0  0  0  0  0
   27.4797   24.9795   14.2987 H   0  0  0  0  0  0  0  0  0  0  0  0
   27.9639   27.1032   12.7538 H   0  0  0  0  0  0  0  0  0  0  0  0
   28.2263   25.6664   11.6062 H   0  0  0  0  0  0  0  0  0  0  0  0
   29.6974   27.0733   16.9037 H   0  0  0  0  0  0  0  0  0  0  0  0
   27.9716   28.0720   15.1215 H   0  0  0  0  0  0  0  0  0  0  0  0
   26.9320   26.9138   16.1354 H   0  0  0  0  0  0  0  0  0  0  0  0
  2  1  1  0
  4  3  1  0
  4  2  1  0
  5  4  2  0
  6  2  1  0
  7  6  1  0
  8  7  2  0
  9  7  1  0
 10  1  1  0
 11 10  1  0
 12 11  2  0
 13 11  1  0
 14 10  1  0
 15 14  1  0
 16 15  2  0
 17 15  1  0
  2 18  1  1
  6 19  1  0
  6 20  1  0
 10 21  1  1
 14 22  1  0
 14 23  1  0
M  CHG  4   3  -1   9  -1  13  -1  17  -1
M  END
$$$$
=
     RDKit          3D

 23 22  0  0  0  0  0  0  0  0999 V2000
   18.7390   16.9710    3.7610 C   0  0  0  0  0  0  0  0  0  0  0  0
   17.2250   15.1760    3.3340 O   0  0  0  0  0  1  0  0  0  0  0  0
   18.4400   15.5110    3.4470 C   0  0  0  0  0  0  0  0  0  0  0  0
   19.4550   14.8000    3.1550 O   0  0  0  0  0  0  0  0  0  0  0  0
   18.9440   17.1650    5.2900 C   0  0  0  0  0  0  0  0  0  0  0  0
   19.5230   18.5670    5.5930 C   0  0  0  0  0  0  0  0  0  0  0  0
   17.5460   17.1220    5.9730 C   0  0  0  0  0  0  0  0  0  0  0  0
   19.8440   16.1410    6.0320 C   0  0  0  0  0  0  0  0  0  0  0  0
   19.3370   15.1800    6.6420 O   0  0  0  0  0  0  0  0  0  0  0  0
   21.3180   16.3930    6.2240 C   0  0  0  0  0  0  0  0  0  0  0  0
   19.7410   17.4720    2.7310 C   0  0  0  0  0  0  0  0  0  0  0  0
   20.8940   17.7740    3.1700 O   0  0  0  0  0  0  0  0  0  0  0  0
   19.3100   17.7050    1.5630 O   0  0  0  0  0  1  0  0  0  0  0  0
   17.9076   17.6774    3.6205 H   0  0  0  0  0  0  0  0  0  0  0  0
   19.5827   18.7116    6.6818 H   0  0  0  0  0  0  0  0  0  0  0  0
   20.5292   18.6504    5.1563 H   0  0  0  0  0  0  0  0  0  0  0  0
   18.8689   19.3361    5.1563 H   0  0  0  0  0  0  0  0  0  0  0  0
   17.6715   17.1259    7.0658 H   0  0  0  0  0  0  0  0  0  0  0  0
   16.9616   18.0026    5.6679 H   0  0  0  0  0  0  0  0  0  0  0  0
   17.0169   16.2072    5.6679 H   0  0  0  0  0  0  0  0  0  0  0  0
   21.5463   16.4320    7.2993 H   0  0  0  0  0  0  0  0  0  0  0  0
   21.8929   15.5801    5.7564 H   0  0  0  0  0  0  0  0  0  0  0  0
   21.5902   17.3507    5.7564 H   0  0  0  0  0  0  0  0  0  0  0  0
  3  2  1  0
  3  1  1  0
  4  3  2  0
  5  1  1  0
  6  5  1  0
  7  5  1  0
  8  5  1  0
  9  8  2  0
 10  8  1  0
 11  1  1  0
 12 11  2  0
 13 11  1  0
  1 14  1  0
  6 15  1  0
  6 16  1  0
  6 17  1  0
  7 18  1  0
  7 19  1  0
  7 20  1  0
 10 21  1  0
 10 22  1  0
 10 23  1  0
M  CHG  2   2  -1  13  -1
M  END
$$$$
=
     RDKit          3D

 18 18  0  0  0  0  0  0  0  0999 V2000
   19.5030   17.8180    4.2690 C   0  0  1  0  0  0  0  0  0  0  0  0
   20.8420   17.8960    4.8310 N   0  0  0  0  0  0  0  0  0  0  0  0
   21.2610   17.1930    5.9330 C   0  0  0  0  0  0  0  0  0  0  0  0
   22.5490   17.3480    6.1550 N   0  0  0  0  0  0  0  0  0  0  0  0
   22.9720   18.2120    5.1810 C   0  0  0  0  0  0  0  0  0  0  0  0
   21.9370   18.5590    4.3450 C   0  0  0  0  0  0  0  0  0  0  0  0
   19.5480   17.0760    2.9330 C   0  0  0  0  0  0  0  0  0  0  0  0
   19.4830   17.8020    1.8960 O   0  0  0  0  0  0  0  0  0  0  0  0
   19.6880   15.8220    3.0190 O   0  0  0  0  0  1  0  0  0  0  0  0
   18.4140   17.2270    5.1710 C   0  0  0  0  0  0  0  0  0  0  0  0
   17.4690   16.3960    4.4930 O   0  0  0  0  0  0  0  0  0  0  0  0
   19.1957   18.8662    4.1393 H   0  0  0  0  0  0  0  0  0  0  0  0
   20.5991   16.5738    6.5563 H   0  0  0  0  0  0  0  0  0  0  0  0
   24.0037   18.5800    5.0805 H   0  0  0  0  0  0  0  0  0  0  0  0
   21.9796   19.2268    3.4720 H   0  0  0  0  0  0  0  0  0  0  0  0
   18.9032   16.6252    5.9510 H   0  0  0  0  0  0  0  0  0  0  0  0
   17.8476   18.0784    5.5764 H   0  0  0  0  0  0  0  0  0  0  0  0
   16.9184   15.9118    5.1582 H   0  0  0  0  0  0  0  0  0  0  0  0
  2  1  1  0
  3  2  1  0
  4  3  2  0
  5  4  1  0
  6  2  1  0
  6  5  2  0
  7  1  1  0
  8  7  2  0
  9  7  1  0
 10  1  1  0
 11 10  1  0
  1 12  1  6
  3 13  1  0
  5 14  1  0
  6 15  1  0
 10 16  1  0
 10 17  1  0
 11 18  1  0
M  CHG  1   9  -1
M  END
$$$$
=
     RDKit          3D

 41 42  0  0  0  0  0  0  0  0999 V2000
   15.2990   15.1830    3.8320 C   0  0  2  0  0  0  0  0  0  0  0  0
   15.9490   14.1440    2.9420 C   0  0  0  0  0  0  0  0  0  0  0  0
   17.3410   14.0250    3.4890 C   0  0  0  0  0  0  0  0  0  0  0  0
   18.0620   13.0690    3.2380 O   0  0  0  0  0  0  0  0  0  0  0  0
   17.6100   15.1330    4.2570 N   0  0  0  0  0  0  0  0  0  0  0  0
   16.4750   15.8900    4.4620 C   0  0  0  0  0  0  0  0  0  0  0  0
   16.3920   16.9790    5.0210 O   0  0  0  0  0  0  0  0  0  0  0  0
   18.8640   15.4090    4.8760 C   0  0  0  0  0  0  0  0  0  0  0  0
   19.1370   14.8160    6.1250 C   0  0  0  0  0  0  0  0  0  0  0  0
   20.3640   14.9910    6.7670 C   0  0  0  0  0  0  0  0  0  0  0  0
   21.3490   15.7680    6.1760 C   0  0  0  0  0  0  0  0  0  0  0  0
   21.0930   16.3890    4.9560 C   0  0  0  0  0  0  0  0  0  0  0  0
   19.8500   16.2430    4.3040 C   0  0  0  0  0  0  0  0  0  0  0  0
   19.6570   17.0490    3.0470 C   0  0  0  0  0  0  0  0  0  0  0  0
   14.2670   14.4400    5.1410 S   0  0  0  0  0  0  0  0  0  0  0  0
   12.6170   14.7410    4.3830 C   0  0  0  0  0  0  0  0  0  0  0  0
   11.6160   13.6020    4.5970 C   0  0  1  0  0  0  0  0  0  0  0  0
    8.3730   14.2090    6.4980 C   0  0  0  0  0  0  0  0  0  0  0  0
    9.8220   13.8370    6.3290 C   0  0  0  0  0  0  0  0  0  0  0  0
   10.4720   13.3620    7.2550 O   0  0  0  0  0  0  0  0  0  0  0  0
   10.3000   14.0790    5.0680 N   0  0  0  0  0  0  0  0  0  0  0  0
   11.5090   12.9880    3.1620 C   0  0  0  0  0  0  0  0  0  0  0  0
   12.6340   12.7220    2.6320 O   0  0  0  0  0  0  0  0  0  0  0  0
   10.3430   12.8100    2.7120 O   0  0  0  0  0  1  0  0  0  0  0  0
   14.6258   15.8376    3.2590 H   0  0  0  0  0  0  0  0  0  0  0  0
   15.4180   13.1830    3.0091 H   0  0  0  0  0  0  0  0  0  0  0  0
   15.9323   14.4243    1.8784 H   0  0  0  0  0  0  0  0  0  0  0  0
   18.3634   14.1995    6.6062 H   0  0  0  0  0  0  0  0  0  0  0  0
   20.5494   14.5133    7.7403 H   0  0  0  0  0  0  0  0  0  0  0  0
   22.3253   15.8929    6.6672 H   0  0  0  0  0  0  0  0  0  0  0  0
   21.8759   17.0061    4.4910 H   0  0  0  0  0  0  0  0  0  0  0  0
   19.4084   18.0873    3.3118 H   0  0  0  0  0  0  0  0  0  0  0  0
   20.5843   17.0334    2.4554 H   0  0  0  0  0  0  0  0  0  0  0  0
   18.8374   16.6151    2.4554 H   0  0  0  0  0  0  0  0  0  0  0  0
   12.1967   15.6579    4.8220 H   0  0  0  0  0  0  0  0  0  0  0  0
   12.7759   14.8252    3.2978 H   0  0  0  0  0  0  0  0  0  0  0  0
   11.9378   12.8925    5.3736 H   0  0  0  0  0  0  0  0  0  0  0  0
    8.1329   14.2707    7.5697 H   0  0  0  0  0  0  0  0  0  0  0  0
    8.1870   15.1840    6.0239 H   0  0  0  0  0  0  0  0  0  0  0  0
    7.7404   13.4441    6.0239 H   0  0  0  0  0  0  0  0  0  0  0  0
    9.7131   14.6198    4.4169 H   0  0  0  0  0  0  0  0  0  0  0  0
  2  1  1  0
  3  2  1  0
  4  3  2  0
  5  3  1  0
  6  1  1  0
  6  5  1  0
  7  6  2  0
  8  5  1  0
  9  8  2  0
 10  9  1  0
 11 10  2  0
 12 11  1  0
 13  8  1  0
 13 12  2  0
 14 13  1  0
 15  1  1  0
 16 15  1  0
 17 16  1  0
 19 18  1  0
 20 19  2  0
 21 19  1  0
 21 17  1  0
 22 17  1  0
 23 22  2  0
 24 22  1  0
  1 25  1  6
  2 26  1  0
  2 27  1  0
  9 28  1  0
 10 29  1  0
 11 30  1  0
 12 31  1  0
 14 32  1  0
 14 33  1  0
 14 34  1  0
 16 35  1  0
 16 36  1  0
 17 37  1  1
 18 38  1  0
 18 39  1  0
 18 40  1  0
 21 41  1  0
M  CHG  1  24  -1
M  END
$$$$
=
     RDKit          3D

 28 30  0  0  0  0  0  0  0  0999 V2000
   10.7980   13.6610    3.8160 C   0  0  0  0  0  0  0  0  0  0  0  0
   11.3170   14.7170    4.5110 N   0  0  0  0  0  0  0  0  0  0  0  0
   12.6390   14.9080    4.5890 N   0  0  0  0  0  0  0  0  0  0  0  0
   13.4060   14.0180    3.9130 C   0  0  0  0  0  0  0  0  0  0  0  0
   12.8120   12.9550    3.2620 C   0  0  0  0  0  0  0  0  0  0  0  0
   11.5030   12.6740    3.2240 N   0  0  0  0  0  0  0  0  0  0  0  0
   13.7930   12.2420    2.6420 N   0  0  0  0  0  0  0  0  0  0  0  0
   15.0270   12.7940    2.9130 C   0  0  0  0  0  0  0  0  0  0  0  0
   14.8140   13.9220    3.7190 C   0  0  0  0  0  0  0  0  0  0  0  0
   15.9250   14.6900    4.1480 C   0  0  0  0  0  0  0  0  0  0  0  0
   17.2090   14.2710    3.7270 C   0  0  0  0  0  0  0  0  0  0  0  0
   17.3880   13.1470    2.9210 C   0  0  0  0  0  0  0  0  0  0  0  0
   16.2990   12.3880    2.4980 C   0  0  0  0  0  0  0  0  0  0  0  0
   15.7750   15.9110    5.0220 C   0  0  0  0  0  0  0  0  0  0  0  0
   16.9420   16.6130    5.1520 F   0  0  0  0  0  0  0  0  0  0  0  0
   14.8710   16.8070    4.5480 F   0  0  0  0  0  0  0  0  0  0  0  0
   15.4020   15.6090    6.2960 F   0  0  0  0  0  0  0  0  0  0  0  0
    9.0270   13.5010    3.7900 S   0  0  0  0  0  0  0  0  0  0  0  0
    8.6730   14.2580    5.4110 C   0  0  0  0  0  0  0  0  0  0  0  0
    9.9390   13.4660    7.2500 O   0  0  0  0  0  1  0  0  0  0  0  0
    8.9690   13.1990    6.4810 C   0  0  0  0  0  0  0  0  0  0  0  0
    8.2530   12.1570    6.4350 O   0  0  0  0  0  0  0  0  0  0  0  0
   13.6356   11.4102    2.0552 H   0  0  0  0  0  0  0  0  0  0  0  0
   18.0904   14.8476    4.0441 H   0  0  0  0  0  0  0  0  0  0  0  0
   18.4036   12.8556    2.6149 H   0  0  0  0  0  0  0  0  0  0  0  0
   16.4349   11.5017    1.8608 H   0  0  0  0  0  0  0  0  0  0  0  0
    9.3149   15.1381    5.5641 H   0  0  0  0  0  0  0  0  0  0  0  0
    7.6251   14.5876    5.4674 H   0  0  0  0  0  0  0  0  0  0  0  0
  2  1  2  0
  3  2  1  0
  4  3  2  0
  5  4  1  0
  6  1  1  0
  6  5  2  0
  7  5  1  0
  8  7  1  0
  9  8  2  0
  9  4  1  0
 10  9  1  0
 11 10  2  0
 12 11  1  0
 13  8  1  0
 13 12  2  0
 14 10  1  0
 15 14  1  0
 16 14  1  0
 17 14  1  0
 18  1  1  0
 19 18  1  0
 21 19  1  0
 21 20  1  0
 22 21  2  0
  7 23  1  0
 11 24  1  0
 12 25  1  0
 13 26  1  0
 19 27  1  0
 19 28  1  0
M  CHG  1  20  -1
M  END
$$$$
=
     RDKit          3D

 30 31  0  0  0  0  0  0  0  0999 V2000
   19.6250   15.9610    5.5680 N   0  0  0  0  0  0  0  0  0  0  0  0
   20.7100   15.5210    6.3130 C   0  0  0  0  0  0  0  0  0  0  0  0
   20.8290   14.4730    6.9250 O   0  0  0  0  0  0  0  0  0  0  0  0
   21.6780   16.5140    6.3250 N   0  0  0  0  0  0  0  0  0  0  0  0
   21.1250   17.7420    5.8450 C   0  0  2  0  0  0  0  0  0  0  0  0
   19.8120   17.3250    5.1500 C   0  0  1  0  0  0  0  0  0  0  0  0
   20.1150   17.4940    3.7480 N   0  0  0  0  0  0  0  0  0  0  0  0
   19.2100   17.1030    2.6980 C   0  0  0  0  0  0  0  0  0  0  0  0
   21.3470   18.1070    3.5580 C   0  0  0  0  0  0  0  0  0  0  0  0
   21.8540   18.3940    2.4840 O   0  0  0  0  0  0  0  0  0  0  0  0
   21.9110   18.3510    4.8090 N   0  0  0  0  0  0  0  0  0  0  0  0
   23.2690   18.7820    5.0080 C   0  0  0  0  0  0  0  0  0  0  0  0
   18.2960   15.3620    5.6480 C   0  0  0  0  0  0  0  0  0  0  0  0
   17.2110   16.4120    5.8040 C   0  0  0  0  0  0  0  0  0  0  0  0
   15.4480   15.1100    6.6290 O   0  0  0  0  0  1  0  0  0  0  0  0
   15.8070   15.8350    5.6580 C   0  0  0  0  0  0  0  0  0  0  0  0
   15.1660   16.1600    4.6230 O   0  0  0  0  0  0  0  0  0  0  0  0
   22.6521   16.3857    6.6342 H   0  0  0  0  0  0  0  0  0  0  0  0
   21.0415   18.4490    6.6835 H   0  0  0  0  0  0  0  0  0  0  0  0
   18.8902   17.8804    5.3776 H   0  0  0  0  0  0  0  0  0  0  0  0
   18.2855   16.7036    3.1406 H   0  0  0  0  0  0  0  0  0  0  0  0
   18.9704   17.9779    2.0758 H   0  0  0  0  0  0  0  0  0  0  0  0
   19.6828   16.3289    2.0758 H   0  0  0  0  0  0  0  0  0  0  0  0
   23.4784   18.8485    6.0858 H   0  0  0  0  0  0  0  0  0  0  0  0
   23.9552   18.0575    4.5452 H   0  0  0  0  0  0  0  0  0  0  0  0
   23.4118   19.7696    4.5452 H   0  0  0  0  0  0  0  0  0  0  0  0
   18.1077   14.7899    4.7276 H   0  0  0  0  0  0  0  0  0  0  0  0
   18.2687   14.7092    6.5329 H   0  0  0  0  0  0  0  0  0  0  0  0
   17.3024   16.8668    6.8014 H   0  0  0  0  0  0  0  0  0  0  0  0
   17.3497   17.1539    5.0038 H   0  0  0  0  0  0  0  0  0  0  0  0
  2  1  1  0
  3  2  2  0
  4  2  1  0
  5  4  1  0
  6  1  1  0
  6  5  1  0
  7  6  1  0
  8  7  1  0
  9  7  1  0
 10  9  2  0
 11  9  1  0
 11  5  1  0
 12 11  1  0
 13  1  1  0
 14 13  1  0
 16 15  1  0
 16 14  1  0
 17 16  2  0
  4 18  1  0
  5 19  1  1
  6 20  1  1
  8 21  1  0
  8 22  1  0
  8 23  1  0
 12 24  1  0
 12 25  1  0
 12 26  1  0
 13 27  1  0
 13 28  1  0
 14 29  1  0
 14 30  1  0
M  CHG  1  15  -1
M  END
$$$$
=
     RDKit          3D

 34 35  0  0  0  0  0  0  0  0999 V2000
   18.5610   16.1370    4.4180 C   0  0  0  0  0  0  0  0  0  0  0  0
   19.0410   17.1210    3.5440 C   0  0  0  0  0  0  0  0  0  0  0  0
   20.3880   17.4950    3.5610 C   0  0  0  0  0  0  0  0  0  0  0  0
   21.2850   16.9040    4.4540 C   0  0  0  0  0  0  0  0  0  0  0  0
   20.8180   15.9250    5.3310 C   0  0  0  0  0  0  0  0  0  0  0  0
   19.4700   15.5480    5.3130 C   0  0  0  0  0  0  0  0  0  0  0  0
   17.1000   15.7480    4.4660 C   0  0  1  0  0  0  0  0  0  0  0  0
   16.8370   14.2940    3.9880 N   0  0  0  0  0  4  0  0  0  0  0  0
   15.5570   13.9960    3.3010 C   0  0  0  0  0  0  0  0  0  0  0  0
   15.9050   12.8780    2.3260 C   0  0  0  0  0  0  0  0  0  0  0  0
   17.2150   12.3010    2.8410 C   0  0  0  0  0  0  0  0  0  0  0  0
   17.9440   13.5300    3.3490 C   0  0  0  0  0  0  0  0  0  0  0  0
   16.8950   16.9540    6.4560 O   0  0  0  0  0  1  0  0  0  0  0  0
   16.3630   15.9660    5.8380 C   0  0  0  0  0  0  0  0  0  0  0  0
   15.4380   15.1890    6.1590 O   0  0  0  0  0  0  0  0  0  0  0  0
   22.5650   17.3680    4.3600 O   0  0  0  0  0  0  0  0  0  0  0  0
   22.8620   18.6170    4.9590 C   0  0  0  0  0  0  0  0  0  0  0  0
   24.1640   18.6860    5.3160 F   0  0  0  0  0  0  0  0  0  0  0  0
   22.1140   18.7530    6.0760 F   0  0  0  0  0  0  0  0  0  0  0  0
   22.5710   19.6410    4.1290 F   0  0  0  0  0  0  0  0  0  0  0  0
   18.3508   17.6045    2.8369 H   0  0  0  0  0  0  0  0  0  0  0  0
   20.7463   18.2649    2.8618 H   0  0  0  0  0  0  0  0  0  0  0  0
   21.5113   15.4476    6.0391 H   0  0  0  0  0  0  0  0  0  0  0  0
   19.1158   14.7764    6.0124 H   0  0  0  0  0  0  0  0  0  0  0  0
   16.6638   16.4671    3.7570 H   0  0  0  0  0  0  0  0  0  0  0  0
   16.7556   13.9291    4.9478 H   0  0  0  0  0  0  0  0  0  0  0  0
   14.7964   13.6617    4.0219 H   0  0  0  0  0  0  0  0  0  0  0  0
   15.1354   14.8778    2.7964 H   0  0  0  0  0  0  0  0  0  0  0  0
   15.1185   12.1090    2.3227 H   0  0  0  0  0  0  0  0  0  0  0  0
   15.9922   13.2433    1.2921 H   0  0  0  0  0  0  0  0  0  0  0  0
   17.0389   11.5803    3.6532 H   0  0  0  0  0  0  0  0  0  0  0  0
   17.7774   11.7449    2.0765 H   0  0  0  0  0  0  0  0  0  0  0  0
   18.7207   13.2620    4.0803 H   0  0  0  0  0  0  0  0  0  0  0  0
   18.4783   14.0881    2.5660 H   0  0  0  0  0  0  0  0  0  0  0  0
  2  1  2  0
  3  2  1  0
  4  3  2  0
  5  4  1  0
  6  5  2  0
  6  1  1  0
  7  1  1  0
  8  7  1  0
  9  8  1  0
 10  9  1  0
 11 10  1  0
 12 11  1  0
 12  8  1  0
 14  7  1  0
 14 13  1  0
 15 14  2  0
 16  4  1  0
 17 16  1  0
 18 17  1  0
 19 17  1  0
 20 17  1  0
  2 21  1  0
  3 22  1  0
  5 23  1  0
  6 24  1  0
  7 25  1  6
  8 26  1  0
  9 27  1  0
  9 28  1  0
 10 29  1  0
 10 30  1  0
 11 31  1  0
 11 32  1  0
 12 33  1  0
 12 34  1  0
M  CHG  2   8   1  13  -1
M  END
$$$$
=
     RDKit          3D

 39 39  0  0  0  0  0  0  0  0999 V2000
   18.8600   16.3870    3.4840 C   0  0  0  0  0  0  0  0  0  0  0  0
   19.4790   15.5620    2.8100 O   0  0  0  0  0  0  0  0  0  0  0  0
   17.6160   15.9650    4.2050 C   0  0  0  0  0  0  0  0  0  0  0  0
   17.3140   16.3930    5.4990 C   0  0  0  0  0  0  0  0  0  0  0  0
   16.1410   15.9600    6.1120 C   0  0  0  0  0  0  0  0  0  0  0  0
   15.2670   15.1060    5.4340 C   0  0  0  0  0  0  0  0  0  0  0  0
   15.5250   14.6660    4.1250 C   0  0  0  0  0  0  0  0  0  0  0  0
   16.7240   15.1030    3.5370 C   0  0  0  0  0  0  0  0  0  0  0  0
   14.6170   13.8060    3.4790 N   0  0  0  0  0  0  0  0  0  0  0  0
   15.2350   12.5860    2.9460 C   0  0  0  0  0  0  0  0  0  0  0  0
   13.3140   13.5900    4.1060 C   0  0  0  0  0  0  0  0  0  0  0  0
   19.3550   17.8160    3.5970 C   0  0  0  0  0  0  0  0  0  0  0  0
   20.8780   17.8960    3.5240 C   0  0  0  0  0  0  0  0  0  0  0  0
   21.4570   18.4720    4.8170 C   0  0  0  0  0  0  0  0  0  0  0  0
   22.2200   17.4420    5.6540 C   0  0  0  0  0  0  0  0  0  0  0  0
   21.8150   16.0020    5.3440 C   0  0  0  0  0  0  0  0  0  0  0  0
   21.0930   15.7140    7.5940 O   0  0  0  0  0  1  0  0  0  0  0  0
   20.9440   15.3230    6.4050 C   0  0  0  0  0  0  0  0  0  0  0  0
   20.1670   14.4380    5.9420 O   0  0  0  0  0  0  0  0  0  0  0  0
   17.9991   17.0689    6.0317 H   0  0  0  0  0  0  0  0  0  0  0  0
   15.9016   16.2913    7.1332 H   0  0  0  0  0  0  0  0  0  0  0  0
   14.3504   14.7685    5.9399 H   0  0  0  0  0  0  0  0  0  0  0  0
   16.9744   14.7609    2.5220 H   0  0  0  0  0  0  0  0  0  0  0  0
   15.5596   11.9453    3.7792 H   0  0  0  0  0  0  0  0  0  0  0  0
   14.5031   12.0433    2.3297 H   0  0  0  0  0  0  0  0  0  0  0  0
   16.1055   12.8551    2.3297 H   0  0  0  0  0  0  0  0  0  0  0  0
   13.4260   13.6086    5.2001 H   0  0  0  0  0  0  0  0  0  0  0  0
   12.6210   14.3855    3.7948 H   0  0  0  0  0  0  0  0  0  0  0  0
   12.9147   12.6134    3.7948 H   0  0  0  0  0  0  0  0  0  0  0  0
   18.9275   18.4070    2.7736 H   0  0  0  0  0  0  0  0  0  0  0  0
   19.0383   18.2113    4.5734 H   0  0  0  0  0  0  0  0  0  0  0  0
   21.2845   16.8862    3.3659 H   0  0  0  0  0  0  0  0  0  0  0  0
   21.1556   18.5570    2.6897 H   0  0  0  0  0  0  0  0  0  0  0  0
   22.1460   19.2890    4.5568 H   0  0  0  0  0  0  0  0  0  0  0  0
   20.6092   18.8204    5.4252 H   0  0  0  0  0  0  0  0  0  0  0  0
   23.2956   17.5545    5.4529 H   0  0  0  0  0  0  0  0  0  0  0  0
   21.9773   17.6317    6.7100 H   0  0  0  0  0  0  0  0  0  0  0  0
   21.2569   16.0028    4.3961 H   0  0  0  0  0  0  0  0  0  0  0  0
   22.7508   15.4251    5.3048 H   0  0  0  0  0  0  0  0  0  0  0  0
  2  1  2  0
  3  1  1  0
  4  3  2  0
  5  4  1  0
  6  5  2  0
  7  6  1  0
  8  7  2  0
  8  3  1  0
  9  7  1  0
 10  9  1  0
 11  9  1  0
 12  1  1  0
 13 12  1  0
 14 13  1  0
 15 14  1  0
 16 15  1  0
 18 17  1  0
 18 16  1  0
 19 18  2  0
  4 20  1  0
  5 21  1  0
  6 22  1  0
  8 23  1  0
 10 24  1  0
 10 25  1  0
 10 26  1  0
 11 27  1  0
 11 28  1  0
 11 29  1  0
 12 30  1  0
 12 31  1  0
 13 32  1  0
 13 33  1  0
 14 34  1  0
 14 35  1  0
 15 36  1  0
 15 37  1  0
 16 38  1  0
 16 39  1  0
M  CHG  1  17  -1
M  END
$$$$
=
     RDKit          3D

 29 28  0  0  0  0  0  0  0  0999 V2000
   15.0320   15.6700    4.9070 C   0  0  0  0  0  0  0  0  0  0  0  0
   16.0700   15.6650    6.0390 C   0  0  0  0  0  0  0  0  0  0  0  0
   17.0520   16.8350    5.9170 C   0  0  0  0  0  0  0  0  0  0  0  0
   18.4300   16.3720    5.4210 C   0  0  0  0  0  0  0  0  0  0  0  0
   18.9640   17.2380    4.2860 C   0  0  0  0  0  0  0  0  0  0  0  0
   19.5390   17.1190    1.9800 O   0  0  0  0  0  1  0  0  0  0  0  0
   19.3760   16.4460    3.0400 C   0  0  0  0  0  0  0  0  0  0  0  0
   19.5200   15.2060    3.2250 O   0  0  0  0  0  0  0  0  0  0  0  0
   15.0110   14.3590    4.1170 C   0  0  0  0  0  0  0  0  0  0  0  0
   16.1710   14.2560    3.1250 C   0  0  0  0  0  0  0  0  0  0  0  0
   16.4910   12.8140    2.7970 C   0  0  0  0  0  0  0  0  0  0  0  0
   15.6210   11.9940    2.5070 O   0  0  0  0  0  0  0  0  0  0  0  0
   17.8060   12.4730    2.8160 N   0  0  0  0  0  0  0  0  0  0  0  0
   14.0358   15.8332    5.3441 H   0  0  0  0  0  0  0  0  0  0  0  0
   15.3071   16.4738    4.2083 H   0  0  0  0  0  0  0  0  0  0  0  0
   15.5456   15.7396    7.0031 H   0  0  0  0  0  0  0  0  0  0  0  0
   16.6439   14.7290    5.9720 H   0  0  0  0  0  0  0  0  0  0  0  0
   16.6453   17.5688    5.2056 H   0  0  0  0  0  0  0  0  0  0  0  0
   17.1791   17.2809    6.9145 H   0  0  0  0  0  0  0  0  0  0  0  0
   19.1394   16.4143    6.2606 H   0  0  0  0  0  0  0  0  0  0  0  0
   18.3193   15.3477    5.0357 H   0  0  0  0  0  0  0  0  0  0  0  0
   18.1795   17.9532    3.9978 H   0  0  0  0  0  0  0  0  0  0  0  0
   19.8707   17.7339    4.6628 H   0  0  0  0  0  0  0  0  0  0  0  0
   15.0760   13.5193    4.8246 H   0  0  0  0  0  0  0  0  0  0  0  0
   14.0742   14.3300    3.5411 H   0  0  0  0  0  0  0  0  0  0  0  0
   15.8970   14.7815    2.1983 H   0  0  0  0  0  0  0  0  0  0  0  0
   17.0605   14.7120    3.5842 H   0  0  0  0  0  0  0  0  0  0  0  0
   18.0906   11.5066    2.6016 H   0  0  0  0  0  0  0  0  0  0  0  0
   18.5184   13.1809    3.0448 H   0  0  0  0  0  0  0  0  0  0  0  0
  2  1  1  0
  3  2  1  0
  4  3  1  0
  5  4  1  0
  7  6  1  0
  7  5  1  0
  8  7  2  0
  9  1  1  0
 10  9  1  0
 11 10  1  0
 12 11  2  0
 13 11  1  0
  1 14  1  0
  1 15  1  0
  2 16  1  0
  2 17  1  0
  3 18  1  0
  3 19  1  0
  4 20  1  0
  4 21  1  0
  5 22  1  0
  5 23  1  0
  9 24  1  0
  9 25  1  0
 10 26  1  0
 10 27  1  0
 13 28  1  0
 13 29  1  0
M  CHG  1   6  -1
M  END
$$$$
=
     RDKit          3D

 36 37  0  0  0  0  0  0  0  0999 V2000
   18.7580   13.8560    3.7230 C   0  0  0  0  0  0  0  0  0  0  0  0
   17.4280   13.8330    3.5510 C   0  0  0  0  0  0  0  0  0  0  0  0
   16.6320   12.5400    2.7350 S   0  0  0  0  0  0  0  0  0  0  0  0
   15.0290   13.1570    3.1220 C   0  0  0  0  0  0  0  0  0  0  0  0
   13.6530   12.3060    2.7110 S   0  0  0  0  0  0  0  0  0  0  0  0
   15.1390   14.3670    3.7710 N   0  0  0  0  0  0  0  0  0  0  0  0
   16.4230   14.8300    4.0210 C   0  0  0  0  0  0  0  0  0  0  0  0
   16.7150   15.8990    4.5370 O   0  0  0  0  0  0  0  0  0  0  0  0
   19.9640   16.0570    3.8650 C   0  0  0  0  0  0  0  0  0  0  0  0
   20.6470   17.0130    4.6250 C   0  0  0  0  0  0  0  0  0  0  0  0
   20.9050   16.7790    5.9760 C   0  0  0  0  0  0  0  0  0  0  0  0
   20.4700   15.5990    6.5760 C   0  0  0  0  0  0  0  0  0  0  0  0
   19.7710   14.6510    5.8280 C   0  0  0  0  0  0  0  0  0  0  0  0
   19.5100   14.8720    4.4690 C   0  0  0  0  0  0  0  0  0  0  0  0
   19.6750   17.6510    2.1830 C   0  0  0  0  0  0  0  0  0  0  0  0
   19.6610   16.2680    2.5420 O   0  0  0  0  0  0  0  0  0  0  0  0
   13.9960   15.1470    4.2690 C   0  0  0  0  0  0  0  0  0  0  0  0
   13.0240   14.2530    5.0510 C   0  0  0  0  0  0  0  0  0  0  0  0
   11.5590   14.5030    4.7070 C   0  0  0  0  0  0  0  0  0  0  0  0
   10.5010   13.8330    5.5860 C   0  0  0  0  0  0  0  0  0  0  0  0
   10.9450   13.3890    6.6820 O   0  0  0  0  0  0  0  0  0  0  0  0
    9.3340   13.7920    5.1160 O   0  0  0  0  0  1  0  0  0  0  0  0
   19.3367   13.0408    3.2641 H   0  0  0  0  0  0  0  0  0  0  0  0
   20.9810   17.9505    4.1565 H   0  0  0  0  0  0  0  0  0  0  0  0
   21.4525   17.5270    6.5683 H   0  0  0  0  0  0  0  0  0  0  0  0
   20.6779   15.4147    7.6403 H   0  0  0  0  0  0  0  0  0  0  0  0
   19.4227   13.7245    6.3079 H   0  0  0  0  0  0  0  0  0  0  0  0
   19.6812   18.2664    3.0947 H   0  0  0  0  0  0  0  0  0  0  0  0
   20.5754   17.8665    1.5890 H   0  0  0  0  0  0  0  0  0  0  0  0
   18.7792   17.8847    1.5890 H   0  0  0  0  0  0  0  0  0  0  0  0
   14.3648   15.9441    4.9313 H   0  0  0  0  0  0  0  0  0  0  0  0
   13.4630   15.5789    3.4091 H   0  0  0  0  0  0  0  0  0  0  0  0
   13.2601   13.2022    4.8271 H   0  0  0  0  0  0  0  0  0  0  0  0
   13.1517   14.4903    6.1175 H   0  0  0  0  0  0  0  0  0  0  0  0
   11.3896   15.5887    4.7577 H   0  0  0  0  0  0  0  0  0  0  0  0
   11.4241   14.0507    3.7134 H   0  0  0  0  0  0  0  0  0  0  0  0
  2  1  2  0
  3  2  1  0
  4  3  1  0
  5  4  2  0
  6  4  1  0
  7  6  1  0
  7  2  1  0
  8  7  2  0
 10  9  2  0
 11 10  1  0
 12 11  2  0
 13 12  1  0
 14  9  1  0
 14  1  1  0
 14 13  2  0
 16  9  1  0
 16 15  1  0
 17  6  1  0
 18 17  1  0
 19 18  1  0
 20 19  1  0
 21 20  2  0
 22 20  1  0
  1 23  1  0
 10 24  1  0
 11 25  1  0
 12 26  1  0
 13 27  1  0
 15 28  1  0
 15 29  1  0
 15 30  1  0
 17 31  1  0
 17 32  1  0
 18 33  1  0
 18 34  1  0
 19 35  1  0
 19 36  1  0
M  CHG  1  22  -1
M  END
$$$$
=
     RDKit          3D

 21 22  0  0  0  0  0  0  0  0999 V2000
   20.2330   16.1790    5.3170 C   0  0  0  0  0  0  0  0  0  0  0  0
   20.3400   16.7980    4.0970 C   0  0  0  0  0  0  0  0  0  0  0  0
   18.9390   16.5680    3.1530 S   0  0  0  0  0  0  0  0  0  0  0  0
   18.1540   15.6240    4.3710 C   0  0  0  0  0  0  0  0  0  0  0  0
   18.9850   15.5070    5.4760 C   0  0  0  0  0  0  0  0  0  0  0  0
   16.7920   15.0670    4.1660 C   0  0  0  0  0  0  0  0  0  0  0  0
   16.5380   13.9560    3.3410 C   0  0  0  0  0  0  0  0  0  0  0  0
   15.2430   13.4550    3.1670 C   0  0  0  0  0  0  0  0  0  0  0  0
   14.1680   14.0540    3.8160 C   0  0  0  0  0  0  0  0  0  0  0  0
   14.3890   15.1530    4.6370 C   0  0  0  0  0  0  0  0  0  0  0  0
   15.6860   15.6520    4.8080 C   0  0  0  0  0  0  0  0  0  0  0  0
   22.3350   16.9900    6.2100 O   0  0  0  0  0  1  0  0  0  0  0  0
   21.3610   16.2050    6.4180 C   0  0  0  0  0  0  0  0  0  0  0  0
   21.1910   15.4380    7.4150 O   0  0  0  0  0  0  0  0  0  0  0  0
   21.2198   17.3710    3.7690 H   0  0  0  0  0  0  0  0  0  0  0  0
   18.7088   14.9513    6.3842 H   0  0  0  0  0  0  0  0  0  0  0  0
   17.3766   13.4700    2.8208 H   0  0  0  0  0  0  0  0  0  0  0  0
   15.0745   12.5851    2.5152 H   0  0  0  0  0  0  0  0  0  0  0  0
   13.1499   13.6602    3.6801 H   0  0  0  0  0  0  0  0  0  0  0  0
   13.5438   15.6317    5.1533 H   0  0  0  0  0  0  0  0  0  0  0  0
   15.8438   16.5232    5.4607 H   0  0  0  0  0  0  0  0  0  0  0  0
  2  1  2  0
  3  2  1  0
  4  3  1  0
  5  4  2  0
  5  1  1  0
  6  4  1  0
  7  6  2  0
  8  7  1  0
  9  8  2  0
 10  9  1  0
 11 10  2  0
 11  6  1  0
 13  1  1  0
 13 12  1  0
 14 13  2  0
  2 15  1  0
  5 16  1  0
  7 17  1  0
  8 18  1  0
  9 19  1  0
 10 20  1  0
 11 21  1  0
M  CHG  1  12  -1
M  END
$$$$
=
     RDKit          3D

 20 20  0  0  0  0  0  0  0  0999 V2000
   15.3940   14.9800    4.2880 C   0  0  0  0  0  0  0  0  0  0  0  0
   14.0420   14.6040    4.2730 C   0  0  0  0  0  0  0  0  0  0  0  0
   13.6000   13.4840    3.5430 C   0  0  0  0  0  0  0  0  0  0  0  0
   14.5500   12.7370    2.8260 C   0  0  0  0  0  0  0  0  0  0  0  0
   15.8980   13.0940    2.8390 C   0  0  0  0  0  0  0  0  0  0  0  0
   16.3060   14.2060    3.5680 C   0  0  0  0  0  0  0  0  0  0  0  0
   17.6090   14.5310    3.5750 F   0  0  0  0  0  0  0  0  0  0  0  0
   12.1330   13.0930    3.5330 C   0  0  0  0  0  0  0  0  0  0  0  0
   11.4160   13.5100    4.4950 O   0  0  0  0  0  0  0  0  0  0  0  0
   11.7340   12.3760    2.5620 O   0  0  0  0  0  1  0  0  0  0  0  0
   16.4420   15.7570    6.4270 C   0  0  0  0  0  0  0  0  0  0  0  0
   15.8490   16.1680    5.0880 C   0  0  0  0  0  0  0  0  0  0  0  0
   13.3120   15.1969    4.8437 H   0  0  0  0  0  0  0  0  0  0  0  0
   14.2262   11.8595    2.2471 H   0  0  0  0  0  0  0  0  0  0  0  0
   16.6336   12.5002    2.2766 H   0  0  0  0  0  0  0  0  0  0  0  0
   15.8346   16.1780    7.2417 H   0  0  0  0  0  0  0  0  0  0  0  0
   16.4485   14.6597    6.5038 H   0  0  0  0  0  0  0  0  0  0  0  0
   17.4718   16.1361    6.5038 H   0  0  0  0  0  0  0  0  0  0  0  0
   16.6125   16.7125    4.5131 H   0  0  0  0  0  0  0  0  0  0  0  0
   14.9723   16.8029    5.2840 H   0  0  0  0  0  0  0  0  0  0  0  0
  2  1  2  0
  3  2  1  0
  4  3  2  0
  5  4  1  0
  6  5  2  0
  6  1  1  0
  7  6  1  0
  8  3  1  0
  9  8  2  0
 10  8  1  0
 12  1  1  0
 12 11  1  0
  2 13  1  0
  4 14  1  0
  5 15  1  0
 11 16  1  0
 11 17  1  0
 11 18  1  0
 12 19  1  0
 12 20  1  0
M  CHG  1  10  -1
M  END
$$$$
=
     RDKit          3D

 30 31  0  0  0  0  0  0  0  0999 V2000
   20.3640   16.6930    4.4580 N   0  0  1  0  0  4  0  0  0  0  0  0
   21.2160   17.8260    3.9580 C   0  0  0  0  0  0  0  0  0  0  0  0
   20.7750   18.0050    2.5170 C   0  0  0  0  0  0  0  0  0  0  0  0
   19.3110   17.5970    2.5420 C   0  0  0  0  0  0  0  0  0  0  0  0
   19.3160   16.3660    3.4510 C   0  0  2  0  0  0  0  0  0  0  0  0
   17.9750   16.0210    4.0470 C   0  0  0  0  0  0  0  0  0  0  0  0
   17.5340   16.6790    5.2080 C   0  0  0  0  0  0  0  0  0  0  0  0
   16.2920   16.3790    5.7770 C   0  0  0  0  0  0  0  0  0  0  0  0
   15.4740   15.4160    5.1930 C   0  0  0  0  0  0  0  0  0  0  0  0
   15.9000   14.7660    4.0440 C   0  0  0  0  0  0  0  0  0  0  0  0
   17.1330   15.0590    3.4670 C   0  0  0  0  0  0  0  0  0  0  0  0
   15.1180   13.8360    3.4820 F   0  0  0  0  0  0  0  0  0  0  0  0
   21.1670   15.5140    5.0220 C   0  0  0  0  0  0  0  0  0  0  0  0
   19.7690   14.3190    6.5460 O   0  0  0  0  0  1  0  0  0  0  0  0
   20.6950   15.1560    6.4560 C   0  0  0  0  0  0  0  0  0  0  0  0
   21.3900   15.7710    7.3260 O   0  0  0  0  0  0  0  0  0  0  0  0
   19.8561   17.0008    5.2996 H   0  0  0  0  0  0  0  0  0  0  0  0
   21.0318   18.7409    4.5403 H   0  0  0  0  0  0  0  0  0  0  0  0
   22.2926   17.6202    4.0500 H   0  0  0  0  0  0  0  0  0  0  0  0
   20.8862   19.0521    2.1987 H   0  0  0  0  0  0  0  0  0  0  0  0
   21.3732   17.4130    1.8087 H   0  0  0  0  0  0  0  0  0  0  0  0
   18.6841   18.3971    2.9624 H   0  0  0  0  0  0  0  0  0  0  0  0
   18.8980   17.3976    1.5422 H   0  0  0  0  0  0  0  0  0  0  0  0
   19.5361   15.4420    2.8963 H   0  0  0  0  0  0  0  0  0  0  0  0
   18.1748   17.4409    5.6759 H   0  0  0  0  0  0  0  0  0  0  0  0
   15.9618   16.9038    6.6856 H   0  0  0  0  0  0  0  0  0  0  0  0
   14.4983   15.1726    5.6388 H   0  0  0  0  0  0  0  0  0  0  0  0
   17.4485   14.5345    2.5530 H   0  0  0  0  0  0  0  0  0  0  0  0
   21.0292   14.6396    4.3690 H   0  0  0  0  0  0  0  0  0  0  0  0
   22.2283   15.8003    5.0633 H   0  0  0  0  0  0  0  0  0  0  0  0
  2  1  1  0
  3  2  1  0
  4  3  1  0
  5  4  1  0
  5  1  1  0
  6  5  1  0
  7  6  2  0
  8  7  1  0
  9  8  2  0
 10  9  1  0
 11 10  2  0
 11  6  1  0
 12 10  1  0
 13  1  1  0
 15 13  1  0
 15 14  1  0
 16 15  2  0
  1 17  1  1
  2 18  1  0
  2 19  1  0
  3 20  1  0
  3 21  1  0
  4 22  1  0
  4 23  1  0
  5 24  1  6
  7 25  1  0
  8 26  1  0
  9 27  1  0
 11 28  1  0
 13 29  1  0
 13 30  1  0
M  CHG  2   1   1  14  -1
M  END
$$$$
=
     RDKit          3D

 27 28  0  0  0  0  0  0  0  0999 V2000
   18.7410   17.1150    4.8680 C   0  0  0  0  0  0  0  0  0  0  0  0
   18.7790   16.5210    3.6020 C   0  0  0  0  0  0  0  0  0  0  0  0
   17.8260   15.5780    3.2060 C   0  0  0  0  0  0  0  0  0  0  0  0
   16.8010   15.1840    4.0750 C   0  0  0  0  0  0  0  0  0  0  0  0
   16.7420   15.7560    5.3590 C   0  0  0  0  0  0  0  0  0  0  0  0
   17.7110   16.7060    5.7320 C   0  0  0  0  0  0  0  0  0  0  0  0
   15.6590   15.3890    6.3340 C   0  0  0  0  0  0  0  0  0  0  0  0
   15.7830   14.1820    3.6100 C   0  0  0  0  0  0  0  0  0  0  0  0
   21.1570   17.7240    5.8720 C   0  0  1  0  0  0  0  0  0  0  0  0
   21.0320   18.2920    4.4780 C   0  0  0  0  0  0  0  0  0  0  0  0
   19.7930   18.1040    5.3180 C   0  0  1  0  0  0  0  0  0  0  0  0
   21.4110   15.8370    7.2340 O   0  0  0  0  0  1  0  0  0  0  0  0
   21.5580   16.3180    6.0630 C   0  0  0  0  0  0  0  0  0  0  0  0
   22.0770   15.6970    5.0820 O   0  0  0  0  0  0  0  0  0  0  0  0
   19.5784   16.8029    2.9009 H   0  0  0  0  0  0  0  0  0  0  0  0
   17.8820   15.1397    2.1986 H   0  0  0  0  0  0  0  0  0  0  0  0
   17.6601   17.1455    6.7391 H   0  0  0  0  0  0  0  0  0  0  0  0
   16.0320   15.5154    7.3611 H   0  0  0  0  0  0  0  0  0  0  0  0
   14.7878   16.0421    6.1773 H   0  0  0  0  0  0  0  0  0  0  0  0
   15.3644   14.3408    6.1773 H   0  0  0  0  0  0  0  0  0  0  0  0
   15.3057   13.7122    4.4827 H   0  0  0  0  0  0  0  0  0  0  0  0
   15.0189   14.6901    3.0034 H   0  0  0  0  0  0  0  0  0  0  0  0
   16.2789   13.4099    3.0034 H   0  0  0  0  0  0  0  0  0  0  0  0
   21.7148   17.9821    6.7843 H   0  0  0  0  0  0  0  0  0  0  0  0
   21.4008   19.3059    4.2635 H   0  0  0  0  0  0  0  0  0  0  0  0
   21.3464   17.9637    3.4763 H   0  0  0  0  0  0  0  0  0  0  0  0
   18.9754   18.7269    5.7097 H   0  0  0  0  0  0  0  0  0  0  0  0
  2  1  2  0
  3  2  1  0
  4  3  2  0
  5  4  1  0
  6  5  2  0
  6  1  1  0
  7  5  1  0
  8  4  1  0
 10  9  1  0
 11 10  1  0
 11  1  1  0
 11  9  1  0
 13 12  1  0
 13  9  1  0
 14 13  2  0
  2 15  1  0
  3 16  1  0
  6 17  1  0
  7 18  1  0
  7 19  1  0
  7 20  1  0
  8 21  1  0
  8 22  1  0
  8 23  1  0
  9 24  1  1
 10 25  1  0
 10 26  1  0
 11 27  1  1
M  CHG  1  12  -1
M  END
$$$$
=
     RDKit          3D

 20 20  0  0  0  0  0  0  0  0999 V2000
   19.0290   16.1830    5.2740 C   0  0  0  0  0  0  0  0  0  0  0  0
   17.8650   17.0840    5.7270 C   0  0  0  0  0  0  0  0  0  0  0  0
   19.1970   15.0710    6.3280 C   0  0  0  0  0  0  0  0  0  0  0  0
   20.3080   17.0190    5.1120 C   0  0  0  0  0  0  0  0  0  0  0  0
   20.5450   18.1040    4.2820 C   0  0  0  0  0  0  0  0  0  0  0  0
   21.8670   18.6200    4.4010 C   0  0  0  0  0  0  0  0  0  0  0  0
   22.6120   17.9160    5.3180 C   0  0  0  0  0  0  0  0  0  0  0  0
   21.7230   16.6420    6.0240 S   0  0  0  0  0  0  0  0  0  0  0  0
   17.5150   15.5120    3.5220 O   0  0  0  0  0  1  0  0  0  0  0  0
   18.7080   15.4180    3.9420 C   0  0  0  0  0  0  0  0  0  0  0  0
   19.6620   14.7520    3.4380 O   0  0  0  0  0  0  0  0  0  0  0  0
   17.8291   17.1118    6.8261 H   0  0  0  0  0  0  0  0  0  0  0  0
   18.0170   18.1021    5.3392 H   0  0  0  0  0  0  0  0  0  0  0  0
   16.9175   16.6816    5.3392 H   0  0  0  0  0  0  0  0  0  0  0  0
   19.1310   15.5077    7.3354 H   0  0  0  0  0  0  0  0  0  0  0  0
   18.4019   14.3217    6.2004 H   0  0  0  0  0  0  0  0  0  0  0  0
   20.1780   14.5900    6.2004 H   0  0  0  0  0  0  0  0  0  0  0  0
   19.7894   18.5233    3.6014 H   0  0  0  0  0  0  0  0  0  0  0  0
   22.2468   19.4788    3.8281 H   0  0  0  0  0  0  0  0  0  0  0  0
   23.6582   18.1471    5.5671 H   0  0  0  0  0  0  0  0  0  0  0  0
  2  1  1  0
  3  1  1  0
  4  1  1  0
  5  4  2  0
  6  5  1  0
  7  6  2  0
  8  4  1  0
  8  7  1  0
 10  9  1  0
 10  1  1  0
 11 10  2  0
  2 12  1  0
  2 13  1  0
  2 14  1  0
  3 15  1  0
  3 16  1  0
  3 17  1  0
  5 18  1  0
  6 19  1  0
  7 20  1  0
M  CHG  1   9  -1
M  END
$$$$
=
     RDKit          3D

 59 63  0  0  0  0  0  0  0  0999 V2000
   14.7200   14.6550    6.0930 O   0  0  0  0  0  0  0  0  0  0  0  0
   14.3740   15.2910    5.1080 C   0  0  0  0  0  0  0  0  0  0  0  0
   13.2880   15.0500    4.3370 N   0  0  0  0  0  0  0  0  0  0  0  0
   12.4070   13.8830    4.4860 C   0  0  2  0  0  0  0  0  0  0  0  0
   12.7490   12.7380    3.4920 C   0  0  0  0  0  0  0  0  0  0  0  0
   12.0770   12.7310    2.4200 O   0  0  0  0  0  0  0  0  0  0  0  0
   13.6580   11.9470    3.8880 O   0  0  0  0  0  1  0  0  0  0  0  0
   10.9470   14.2300    4.1650 C   0  0  0  0  0  0  0  0  0  0  0  0
    9.9770   13.7400    5.1980 C   0  0  0  0  0  0  0  0  0  0  0  0
   10.0990   13.6430    6.5700 C   0  0  0  0  0  0  0  0  0  0  0  0
    8.9530   13.1550    7.1420 N   0  0  0  0  0  0  0  0  0  0  0  0
    8.1440   12.9290    6.1320 C   0  0  0  0  0  0  0  0  0  0  0  0
    8.7050   13.2880    4.9340 N   0  0  0  0  0  0  0  0  0  0  0  0
    8.0600   13.1200    3.6400 C   0  0  0  0  0  0  0  0  0  0  0  0
    7.4770   14.4090    3.1130 C   0  0  0  0  0  0  0  0  0  0  0  0
    7.7890   14.8750    1.8260 C   0  0  0  0  0  0  0  0  0  0  0  0
    7.2470   16.0730    1.3540 C   0  0  0  0  0  0  0  0  0  0  0  0
    6.3920   16.8190    2.1620 C   0  0  0  0  0  0  0  0  0  0  0  0
    6.0770   16.3690    3.4420 C   0  0  0  0  0  0  0  0  0  0  0  0
    6.6180   15.1730    3.9160 C   0  0  0  0  0  0  0  0  0  0  0  0
   15.0370   16.3680    4.6150 O   0  0  0  0  0  0  0  0  0  0  0  0
   16.3500   16.5770    5.1630 C   0  0  0  0  0  0  0  0  0  0  0  0
   17.4440   16.3180    4.1200 C   0  0  0  0  0  0  0  0  0  0  0  0
   17.5280   14.8440    3.7210 C   0  0  0  0  0  0  0  0  0  0  0  0
   16.5510   14.0580    3.1290 C   0  0  0  0  0  0  0  0  0  0  0  0
   16.8580   12.7250    2.8500 C   0  0  0  0  0  0  0  0  0  0  0  0
   18.1240   12.2000    3.1570 C   0  0  0  0  0  0  0  0  0  0  0  0
   19.1080   13.0000    3.7480 C   0  0  0  0  0  0  0  0  0  0  0  0
   18.8050   14.3230    4.0260 C   0  0  0  0  0  0  0  0  0  0  0  0
   19.6100   15.3710    4.6140 C   0  0  0  0  0  0  0  0  0  0  0  0
   18.8430   16.5550    4.6800 C   0  0  0  0  0  0  0  0  0  0  0  0
   19.3770   17.7360    5.1750 C   0  0  0  0  0  0  0  0  0  0  0  0
   20.6960   17.7200    5.6330 C   0  0  0  0  0  0  0  0  0  0  0  0
   21.4590   16.5430    5.5820 C   0  0  0  0  0  0  0  0  0  0  0  0
   20.9190   15.3590    5.0680 C   0  0  0  0  0  0  0  0  0  0  0  0
   13.0640   15.7298    3.5964 H   0  0  0  0  0  0  0  0  0  0  0  0
   12.5521   13.5712    5.5309 H   0  0  0  0  0  0  0  0  0  0  0  0
   10.8564   15.3239    4.0929 H   0  0  0  0  0  0  0  0  0  0  0  0
   10.6947   13.7284    3.2191 H   0  0  0  0  0  0  0  0  0  0  0  0
   11.0019   13.9221    7.1329 H   0  0  0  0  0  0  0  0  0  0  0  0
    7.1355   12.5021    6.2354 H   0  0  0  0  0  0  0  0  0  0  0  0
    8.8046   12.7493    2.9202 H   0  0  0  0  0  0  0  0  0  0  0  0
    7.2324   12.4070    3.7691 H   0  0  0  0  0  0  0  0  0  0  0  0
    8.4658   14.2921    1.1840 H   0  0  0  0  0  0  0  0  0  0  0  0
    7.4958   16.4277    0.3429 H   0  0  0  0  0  0  0  0  0  0  0  0
    5.9661   17.7624    1.7896 H   0  0  0  0  0  0  0  0  0  0  0  0
    5.4010   16.9570    4.0801 H   0  0  0  0  0  0  0  0  0  0  0  0
    6.3681   14.8262    4.9296 H   0  0  0  0  0  0  0  0  0  0  0  0
   16.4295   17.6167    5.5132 H   0  0  0  0  0  0  0  0  0  0  0  0
   16.4926   15.8709    5.9943 H   0  0  0  0  0  0  0  0  0  0  0  0
   17.1720   16.9905    3.2931 H   0  0  0  0  0  0  0  0  0  0  0  0
   15.5618   14.4732    2.8860 H   0  0  0  0  0  0  0  0  0  0  0  0
   16.0996   12.0784    2.3844 H   0  0  0  0  0  0  0  0  0  0  0  0
   18.3447   11.1466    2.9299 H   0  0  0  0  0  0  0  0  0  0  0  0
   20.0996   12.5879    3.9865 H   0  0  0  0  0  0  0  0  0  0  0  0
   18.7785   18.6584    5.2058 H   0  0  0  0  0  0  0  0  0  0  0  0
   21.1421   18.6402    6.0383 H   0  0  0  0  0  0  0  0  0  0  0  0
   22.4952   16.5515    5.9510 H   0  0  0  0  0  0  0  0  0  0  0  0
   21.5204   14.4390    5.0253 H   0  0  0  0  0  0  0  0  0  0  0  0
  2  1  2  0
  3  2  1  0
  4  3  1  0
  5  4  1  0
  6  5  2  0
  7  5  1  0
  8  4  1  0
  9  8  1  0
 10  9  2  0
 11 10  1  0
 12 11  2  0
 13  9  1  0
 13 12  1  0
 14 13  1  0
 15 14  1  0
 16 15  2  0
 17 16  1  0
 18 17  2  0
 19 18  1  0
 20 15  1  0
 20 19  2  0
 21  2  1  0
 22 21  1  0
 23 22  1  0
 24 23  1  0
 25 24  2  0
 26 25  1  0
 27 26  2  0
 28 27  1  0
 29 28  2  0
 29 24  1  0
 30 29  1  0
 31 30  2  0
 31 23  1  0
 32 31  1  0
 33 32  2  0
 34 33  1  0
 35 30  1  0
 35 34  2  0
  3 36  1  0
  4 37  1  1
  8 38  1  0
  8 39  1  0
 10 40  1  0
 12 41  1  0
 14 42  1  0
 14 43  1  0
 16 44  1  0
 17 45  1  0
 18 46  1  0
 19 47  1  0
 20 48  1  0
 22 49  1  0
 22 50  1  0
 23 51  1  0
 25 52  1  0
 26 53  1  0
 27 54  1  0
 28 55  1  0
 32 56  1  0
 33 57  1  0
 34 58  1  0
 35 59  1  0
M  CHG  1   7  -1
M  END
$$$$
=
     RDKit          3D

 30 30  0  0  0  0  0  0  0  0999 V2000
   17.8070   15.5490    4.2640 C   0  0  0  0  0  0  0  0  0  0  0  0
   18.5870   15.9830    3.1880 C   0  0  0  0  0  0  0  0  0  0  0  0
   19.2910   17.1950    3.2500 C   0  0  0  0  0  0  0  0  0  0  0  0
   20.1520   17.6170    2.0970 C   0  0  0  0  0  0  0  0  0  0  0  0
   19.2350   17.9590    4.4180 C   0  0  0  0  0  0  0  0  0  0  0  0
   18.4740   17.5250    5.5050 C   0  0  0  0  0  0  0  0  0  0  0  0
   17.7600   16.3200    5.4400 C   0  0  0  0  0  0  0  0  0  0  0  0
   16.9540   15.8590    6.6200 C   0  0  0  0  0  0  0  0  0  0  0  0
   17.0920   14.3810    4.2880 O   0  0  0  0  0  0  0  0  0  0  0  0
   16.0020   14.2290    3.3530 C   0  0  1  0  0  0  0  0  0  0  0  0
   16.0010   12.8130    2.7130 C   0  0  0  0  0  0  0  0  0  0  0  0
   17.1210   12.2470    2.5630 O   0  0  0  0  0  0  0  0  0  0  0  0
   14.8440   12.3610    2.4430 O   0  0  0  0  0  1  0  0  0  0  0  0
   14.2030   15.8260    4.1560 C   0  0  0  0  0  0  0  0  0  0  0  0
   14.6920   14.3820    4.1380 C   0  0  0  0  0  0  0  0  0  0  0  0
   18.6496   15.3654    2.2799 H   0  0  0  0  0  0  0  0  0  0  0  0
   21.0785   18.0711    2.4782 H   0  0  0  0  0  0  0  0  0  0  0  0
   20.3998   16.7382    1.4835 H   0  0  0  0  0  0  0  0  0  0  0  0
   19.6092   18.3512    1.4835 H   0  0  0  0  0  0  0  0  0  0  0  0
   19.7921   18.9054    4.4815 H   0  0  0  0  0  0  0  0  0  0  0  0
   18.4342   18.1337    6.4204 H   0  0  0  0  0  0  0  0  0  0  0  0
   17.4647   16.1511    7.5495 H   0  0  0  0  0  0  0  0  0  0  0  0
   15.9575   16.3237    6.5875 H   0  0  0  0  0  0  0  0  0  0  0  0
   16.8494   14.7645    6.5875 H   0  0  0  0  0  0  0  0  0  0  0  0
   16.1078   14.9812    2.5574 H   0  0  0  0  0  0  0  0  0  0  0  0
   14.0893   16.1617    5.1973 H   0  0  0  0  0  0  0  0  0  0  0  0
   14.9341   16.4671    3.6418 H   0  0  0  0  0  0  0  0  0  0  0  0
   13.2327   15.8910    3.6418 H   0  0  0  0  0  0  0  0  0  0  0  0
   14.8576   14.0501    5.1736 H   0  0  0  0  0  0  0  0  0  0  0  0
   13.9248   13.7693    3.6420 H   0  0  0  0  0  0  0  0  0  0  0  0
  2  1  2  0
  3  2  1  0
  4  3  1  0
  5  3  2  0
  6  5  1  0
  7  1  1  0
  7  6  2  0
  8  7  1  0
  9  1  1  0
 10  9  1  0
 11 10  1  0
 12 11  2  0
 13 11  1  0
 15 14  1  0
 15 10  1  0
  2 16  1  0
  4 17  1  0
  4 18  1  0
  4 19  1  0
  5 20  1  0
  6 21  1  0
  8 22  1  0
  8 23  1  0
  8 24  1  0
 10 25  1  6
 14 26  1  0
 14 27  1  0
 14 28  1  0
 15 29  1  0
 15 30  1  0
M  CHG  1  13  -1
M  END
$$$$
=
     RDKit          3D

 24 25  0  0  0  0  0  0  0  0999 V2000
   17.9880   13.9270    3.2600 C   0  0  0  0  0  0  0  0  0  0  0  0
   12.6030   15.0430    4.5350 F   0  0  0  0  0  0  0  0  0  0  0  0
   13.8810   14.7840    4.2280 C   0  0  0  0  0  0  0  0  0  0  0  0
   14.2020   13.5930    3.5870 C   0  0  0  0  0  0  0  0  0  0  0  0
   15.5330   13.3190    3.2670 C   0  0  0  0  0  0  0  0  0  0  0  0
   16.5470   14.2380    3.5870 C   0  0  0  0  0  0  0  0  0  0  0  0
   16.1980   15.4330    4.2410 C   0  0  0  0  0  0  0  0  0  0  0  0
   14.8660   15.7060    4.5570 C   0  0  0  0  0  0  0  0  0  0  0  0
   18.9100   14.8850    3.8370 N   0  0  0  0  0  0  0  0  0  0  0  0
   19.3210   16.0530    3.2600 C   0  0  0  0  0  0  0  0  0  0  0  0
   20.2000   16.6770    4.0090 N   0  0  0  0  0  0  0  0  0  0  0  0
   20.3690   15.8700    5.1300 C   0  0  0  0  0  0  0  0  0  0  0  0
   19.5680   14.7480    5.0210 C   0  0  0  0  0  0  0  0  0  0  0  0
   21.3370   16.1420    6.3920 C   0  0  0  0  0  0  0  0  0  0  0  0
   21.0850   15.4610    7.4390 O   0  0  0  0  0  0  0  0  0  0  0  0
   22.2660   16.9980    6.2570 O   0  0  0  0  0  1  0  0  0  0  0  0
   18.2297   12.9270    3.6493 H   0  0  0  0  0  0  0  0  0  0  0  0
   18.0992   13.9746    2.1667 H   0  0  0  0  0  0  0  0  0  0  0  0
   13.4120   12.8708    3.3334 H   0  0  0  0  0  0  0  0  0  0  0  0
   15.7900   12.3769    2.7607 H   0  0  0  0  0  0  0  0  0  0  0  0
   16.9811   16.1587    4.5058 H   0  0  0  0  0  0  0  0  0  0  0  0
   14.5984   16.6452    5.0632 H   0  0  0  0  0  0  0  0  0  0  0  0
   18.9605   16.4241    2.2893 H   0  0  0  0  0  0  0  0  0  0  0  0
   19.4809   13.9196    5.7394 H   0  0  0  0  0  0  0  0  0  0  0  0
  3  2  1  0
  4  3  2  0
  5  4  1  0
  6  5  2  0
  6  1  1  0
  7  6  1  0
  8  7  2  0
  8  3  1  0
  9  1  1  0
 10  9  1  0
 11 10  2  0
 12 11  1  0
 13 12  2  0
 13  9  1  0
 14 12  1  0
 15 14  2  0
 16 14  1  0
  1 17  1  0
  1 18  1  0
  4 19  1  0
  5 20  1  0
  7 21  1  0
  8 22  1  0
 10 23  1  0
 13 24  1  0
M  CHG  1  16  -1
M  END
$$$$
=
     RDKit          3D

 19 19  0  0  0  0  0  0  0  0999 V2000
   20.6540   17.7500    3.3780 O   0  0  0  0  0  0  0  0  0  0  0  0
   20.2990   17.3250    4.4810 C   0  0  0  0  0  0  0  0  0  0  0  0
   19.2630   18.0580    5.3060 C   0  0  0  0  0  0  0  0  0  0  0  0
   18.0230   17.1770    5.4090 C   0  0  0  0  0  0  0  0  0  0  0  0
   18.3580   15.7720    5.9180 C   0  0  0  0  0  0  0  0  0  0  0  0
   19.4700   15.1100    5.0920 C   0  0  0  0  0  0  0  0  0  0  0  0
   20.7310   15.9790    5.0100 C   0  0  2  0  0  0  0  0  0  0  0  0
   21.4770   16.1410    6.3330 C   0  0  0  0  0  0  0  0  0  0  0  0
   21.1010   15.3960    7.2790 O   0  0  0  0  0  0  0  0  0  0  0  0
   22.3960   17.0110    6.3390 O   0  0  0  0  0  1  0  0  0  0  0  0
   19.6617   18.2582    6.3115 H   0  0  0  0  0  0  0  0  0  0  0  0
   19.0086   19.0167    4.8304 H   0  0  0  0  0  0  0  0  0  0  0  0
   17.3109   17.6460    6.1039 H   0  0  0  0  0  0  0  0  0  0  0  0
   17.5910   17.0795    4.4021 H   0  0  0  0  0  0  0  0  0  0  0  0
   18.6879   15.8430    6.9650 H   0  0  0  0  0  0  0  0  0  0  0  0
   17.4532   15.1532    5.8266 H   0  0  0  0  0  0  0  0  0  0  0  0
   19.7325   14.1490    5.5584 H   0  0  0  0  0  0  0  0  0  0  0  0
   19.0909   14.9702    4.0689 H   0  0  0  0  0  0  0  0  0  0  0  0
   21.4522   15.4774    4.3480 H   0  0  0  0  0  0  0  0  0  0  0  0
  2  1  2  0
  3  2  1  0
  4  3  1  0
  5  4  1  0
  6  5  1  0
  7  6  1  0
  7  2  1  0
  8  7  1  0
  9  8  2  0
 10  8  1  0
  3 11  1  0
  3 12  1  0
  4 13  1  0
  4 14  1  0
  5 15  1  0
  5 16  1  0
  6 17  1  0
  6 18  1  0
  7 19  1  6
M  CHG  1  10  -1
M  END
$$$$
=
     RDKit          3D

 42 43  0  0  0  0  0  0  0  0999 V2000
   28.0200   25.4130   13.9310 C   0  0  1  0  0  0  0  0  0  0  0  0
   26.7660   24.9380   14.6680 C   0  0  0  0  0  0  0  0  0  0  0  0
   25.6920   25.0690   13.7190 N   0  0  0  0  0  0  0  0  0  0  0  0
   26.1810   25.0370   12.3500 C   0  0  0  0  0  0  0  0  0  0  0  0
   27.6820   25.3030   12.4360 C   0  0  2  0  0  0  0  0  0  0  0  0
   24.3770   24.9420   14.0890 C   0  0  0  0  0  0  0  0  0  0  0  0
   24.0070   24.8290   15.2510 O   0  0  0  0  0  0  0  0  0  0  0  0
   29.5910   27.0560   15.2370 C   0  0  0  0  0  0  0  0  0  0  0  0
   29.9570   28.3880   15.5170 C   0  0  0  0  0  0  0  0  0  0  0  0
   29.2880   29.4620   14.9310 C   0  0  0  0  0  0  0  0  0  0  0  0
   28.2360   29.2170   14.0610 C   0  0  0  0  0  0  0  0  0  0  0  0
   27.8650   27.9030   13.7720 C   0  0  0  0  0  0  0  0  0  0  0  0
   28.5350   26.7940   14.3400 C   0  0  0  0  0  0  0  0  0  0  0  0
   30.8510   25.1500   16.4680 N   0  0  0  0  0  0  0  0  0  0  0  0
   30.3420   26.0420   15.9250 C   0  0  0  0  0  0  0  0  0  0  0  0
   28.3090   24.1230   11.7000 C   0  0  0  0  0  0  0  0  0  0  0  0
   29.1200   23.4450   12.3940 O   0  0  0  0  0  0  0  0  0  0  0  0
   27.9520   23.9510   10.5030 O   0  0  0  0  0  1  0  0  0  0  0  0
   23.5500   24.9600   13.0120 O   0  0  0  0  0  0  0  0  0  0  0  0
   22.5780   26.0160   12.8320 C   0  0  0  0  0  0  0  0  0  0  0  0
   22.7630   26.4720   11.3770 C   0  0  0  0  0  0  0  0  0  0  0  0
   21.1470   25.4940   13.0020 C   0  0  0  0  0  0  0  0  0  0  0  0
   22.8690   27.2050   13.7550 C   0  0  0  0  0  0  0  0  0  0  0  0
   28.8762   24.7785   14.2037 H   0  0  0  0  0  0  0  0  0  0  0  0
   26.8775   23.8893   14.9807 H   0  0  0  0  0  0  0  0  0  0  0  0
   26.5803   25.5251   15.5795 H   0  0  0  0  0  0  0  0  0  0  0  0
   25.9922   24.0516   11.8991 H   0  0  0  0  0  0  0  0  0  0  0  0
   25.6736   25.7842   11.7221 H   0  0  0  0  0  0  0  0  0  0  0  0
   28.0547   26.2303   11.9765 H   0  0  0  0  0  0  0  0  0  0  0  0
   30.7870   28.5842   16.2117 H   0  0  0  0  0  0  0  0  0  0  0  0
   29.5920   30.4948   15.1568 H   0  0  0  0  0  0  0  0  0  0  0  0
   27.6952   30.0565   13.5998 H   0  0  0  0  0  0  0  0  0  0  0  0
   27.0269   27.7244   13.0823 H   0  0  0  0  0  0  0  0  0  0  0  0
   23.1765   27.4912   11.3619 H   0  0  0  0  0  0  0  0  0  0  0  0
   23.4548   25.7880   10.8635 H   0  0  0  0  0  0  0  0  0  0  0  0
   21.7902   26.4633   10.8635 H   0  0  0  0  0  0  0  0  0  0  0  0
   20.9127   25.4085   14.0734 H   0  0  0  0  0  0  0  0  0  0  0  0
   20.4428   26.1932   12.5273 H   0  0  0  0  0  0  0  0  0  0  0  0
   21.0584   24.5057   12.5273 H   0  0  0  0  0  0  0  0  0  0  0  0
   22.7902   26.8829   14.8038 H   0  0  0  0  0  0  0  0  0  0  0  0
   23.8852   27.5791   13.5617 H   0  0  0  0  0  0  0  0  0  0  0  0
   22.1404   28.0061   13.5617 H   0  0  0  0  0  0  0  0  0  0  0  0
  2  1  1  0
  3  2  1  0
  4  3  1  0
  5  4  1  0
  5  1  1  0
  6  3  1  0
  7  6  2  0
  9  8  2  0
 10  9  1  0
 11 10  2  0
 12 11  1  0
 13  8  1  0
 13  1  1  0
 13 12  2  0
 15  8  1  0
 15 14  3  0
 16  5  1  0
 17 16  2  0
 18 16  1  0
 19  6  1  0
 20 19  1  0
 21 20  1  0
 22 20  1  0
 23 20  1  0
  1 24  1  6
  2 25  1  0
  2 26  1  0
  4 27  1  0
  4 28  1  0
  5 29  1  6
  9 30  1  0
 10 31  1  0
 11 32  1  0
 12 33  1  0
 21 34  1  0
 21 35  1  0
 21 36  1  0
 22 37  1  0
 22 38  1  0
 22 39  1  0
 23 40  1  0
 23 41  1  0
 23 42  1  0
M  CHG  1  18  -1
M  END
$$$$
=
     RDKit          3D

 61 61  0  0  0  0  0  0  0  0999 V2000
   13.7880   13.6450    4.2220 C   0  0  1  0  0  0  0  0  0  0  0  0
   14.1450   12.4020    3.3910 C   0  0  1  0  0  0  0  0  0  0  0  0
   15.6640   12.4290    3.3140 C   0  0  0  0  0  0  0  0  0  0  0  0
   15.9540   13.9040    3.3370 C   0  0  0  0  0  0  0  0  0  0  0  0
   17.0600   14.3580    3.0760 O   0  0  0  0  0  0  0  0  0  0  0  0
   14.7330   14.7370    3.6800 C   0  0  2  0  0  0  0  0  0  0  0  0
   11.4570   13.3840    3.3140 C   0  0  0  0  0  0  0  0  0  0  0  0
   12.3340   14.0380    4.0920 C   0  0  0  0  0  0  0  0  0  0  0  0
   10.0070   13.7580    3.1870 C   0  0  0  0  0  0  0  0  0  0  0  0
    9.0440   12.5980    2.8160 C   0  0  1  0  0  0  0  0  0  0  0  0
    8.3270   12.8930    1.4930 C   0  0  0  0  0  0  0  0  0  0  0  0
    9.8540   11.4300    2.5950 O   0  0  0  0  0  0  0  0  0  0  0  0
    8.0460   12.2980    3.9610 C   0  0  0  0  0  0  0  0  0  0  0  0
    7.9250   13.4130    5.0080 C   0  0  0  0  0  0  0  0  0  0  0  0
    9.5640   14.0580    6.8600 C   0  0  0  0  0  0  0  0  0  0  0  0
    8.5490   13.0430    6.3580 C   0  0  0  0  0  0  0  0  0  0  0  0
   13.6980   11.2170    4.0360 O   0  0  0  0  0  0  0  0  0  0  0  0
   14.9970   15.8350    4.7140 C   0  0  0  0  0  0  0  0  0  0  0  0
   15.4890   15.2820    6.0570 C   0  0  0  0  0  0  0  0  0  0  0  0
   16.9060   15.7790    6.3620 C   0  0  0  0  0  0  0  0  0  0  0  0
   17.3220   16.9880    5.5200 C   0  0  0  0  0  0  0  0  0  0  0  0
   18.8250   17.1360    5.2660 C   0  0  0  0  0  0  0  0  0  0  0  0
   19.1470   17.9190    3.9970 C   0  0  0  0  0  0  0  0  0  0  0  0
   19.6060   17.0760    2.8010 C   0  0  0  0  0  0  0  0  0  0  0  0
   19.8140   15.8590    3.0780 O   0  0  0  0  0  0  0  0  0  0  0  0
   19.7290   17.6760    1.6980 O   0  0  0  0  0  1  0  0  0  0  0  0
   13.9169   13.4694    5.3002 H   0  0  0  0  0  0  0  0  0  0  0  0
   13.6700   12.4098    2.3989 H   0  0  0  0  0  0  0  0  0  0  0  0
   16.1167   11.9195    4.1774 H   0  0  0  0  0  0  0  0  0  0  0  0
   16.0719   11.9113    2.4333 H   0  0  0  0  0  0  0  0  0  0  0  0
   14.3446   15.3123    2.8267 H   0  0  0  0  0  0  0  0  0  0  0  0
   11.8215   12.5228    2.7348 H   0  0  0  0  0  0  0  0  0  0  0  0
   11.9757   14.9058    4.6652 H   0  0  0  0  0  0  0  0  0  0  0  0
    9.6794   14.1744    4.1510 H   0  0  0  0  0  0  0  0  0  0  0  0
    9.9529   14.4721    2.3521 H   0  0  0  0  0  0  0  0  0  0  0  0
    7.3281   13.3040    1.7010 H   0  0  0  0  0  0  0  0  0  0  0  0
    8.9110   13.6239    0.9145 H   0  0  0  0  0  0  0  0  0  0  0  0
    8.2276   11.9627    0.9145 H   0  0  0  0  0  0  0  0  0  0  0  0
   10.1215   11.0442    3.4666 H   0  0  0  0  0  0  0  0  0  0  0  0
    7.0529   12.1343    3.5171 H   0  0  0  0  0  0  0  0  0  0  0  0
    8.4323   11.4137    4.4890 H   0  0  0  0  0  0  0  0  0  0  0  0
    8.4311   14.3106    4.6231 H   0  0  0  0  0  0  0  0  0  0  0  0
    6.8523   13.5855    5.1797 H   0  0  0  0  0  0  0  0  0  0  0  0
    9.5666   14.0606    7.9600 H   0  0  0  0  0  0  0  0  0  0  0  0
   10.5649   13.7887    6.4916 H   0  0  0  0  0  0  0  0  0  0  0  0
    9.2947   15.0589    6.4916 H   0  0  0  0  0  0  0  0  0  0  0  0
    7.7432   12.9602    7.1022 H   0  0  0  0  0  0  0  0  0  0  0  0
    9.0866   12.0940    6.2148 H   0  0  0  0  0  0  0  0  0  0  0  0
   13.7437   11.3382    5.0175 H   0  0  0  0  0  0  0  0  0  0  0  0
   15.7612   16.5177    4.3141 H   0  0  0  0  0  0  0  0  0  0  0  0
   14.0436   16.3518    4.8984 H   0  0  0  0  0  0  0  0  0  0  0  0
   14.8098   15.6157    6.8553 H   0  0  0  0  0  0  0  0  0  0  0  0
   15.5040   14.1835    6.0025 H   0  0  0  0  0  0  0  0  0  0  0  0
   16.9554   16.0605    7.4242 H   0  0  0  0  0  0  0  0  0  0  0  0
   17.5970   14.9593    6.1159 H   0  0  0  0  0  0  0  0  0  0  0  0
   16.8207   16.9085    4.5441 H   0  0  0  0  0  0  0  0  0  0  0  0
   17.0281   17.8738    6.1022 H   0  0  0  0  0  0  0  0  0  0  0  0
   19.2743   17.6593    6.1229 H   0  0  0  0  0  0  0  0  0  0  0  0
   19.2356   16.1236    5.1378 H   0  0  0  0  0  0  0  0  0  0  0  0
   18.2415   18.4672    3.6979 H   0  0  0  0  0  0  0  0  0  0  0  0
   19.9958   18.5710    4.2510 H   0  0  0  0  0  0  0  0  0  0  0  0
  2  1  1  0
  3  2  1  0
  4  3  1  0
  5  4  2  0
  6  4  1  0
  6  1  1  0
  8  7  2  0
  8  1  1  0
  9  7  1  0
 10  9  1  0
 11 10  1  0
 10 12  1  6
 13 10  1  0
 14 13  1  0
 16 14  1  0
 16 15  1  0
 17  2  1  0
 18  6  1  0
 19 18  1  0
 20 19  1  0
 21 20  1  0
 22 21  1  0
 23 22  1  0
 24 23  1  0
 25 24  2  0
 26 24  1  0
  1 27  1  1
  2 28  1  6
  3 29  1  0
  3 30  1  0
  6 31  1  6
  7 32  1  0
  8 33  1  0
  9 34  1  0
  9 35  1  0
 11 36  1  0
 11 37  1  0
 11 38  1  0
 12 39  1  0
 13 40  1  0
 13 41  1  0
 14 42  1  0
 14 43  1  0
 15 44  1  0
 15 45  1  0
 15 46  1  0
 16 47  1  0
 16 48  1  0
 17 49  1  0
 18 50  1  0
 18 51  1  0
 19 52  1  0
 19 53  1  0
 20 54  1  0
 20 55  1  0
 21 56  1  0
 21 57  1  0
 22 58  1  0
 22 59  1  0
 23 60  1  0
 23 61  1  0
M  CHG  1  26  -1
M  END
$$$$
=
     RDKit          3D

 22 22  0  0  0  0  0  0  0  0999 V2000
   19.6620   16.6570    5.2090 C   0  0  0  0  0  0  0  0  0  0  0  0
   20.6980   17.5200    5.4770 C   0  0  0  0  0  0  0  0  0  0  0  0
   20.0850   18.7330    5.8210 C   0  0  0  0  0  0  0  0  0  0  0  0
   18.7500   18.6670    5.7570 N   0  0  0  0  0  0  0  0  0  0  0  0
   18.5170   17.3840    5.3610 N   0  0  0  0  0  0  0  0  0  0  0  0
   19.8720   14.9020    3.6090 O   0  0  0  0  0  1  0  0  0  0  0  0
   19.7920   15.1710    4.8400 C   0  0  0  0  0  0  0  0  0  0  0  0
   19.7840   14.3640    5.8110 O   0  0  0  0  0  0  0  0  0  0  0  0
   22.0970   17.2670    5.4230 N   0  0  0  0  0  4  0  0  0  0  0  0
   22.6940   17.6380    4.4020 O   0  0  0  0  0  0  0  0  0  0  0  0
   22.6260   16.8710    6.4730 O   0  0  0  0  0  1  0  0  0  0  0  0
   17.1430   16.9390    5.2090 C   0  0  0  0  0  0  0  0  0  0  0  0
   16.6490   16.0600    6.3580 C   0  0  0  0  0  0  0  0  0  0  0  0
   15.4470   15.2050    5.9820 C   0  0  0  0  0  0  0  0  0  0  0  0
   20.6394   19.6377    6.1111 H   0  0  0  0  0  0  0  0  0  0  0  0
   16.4957   17.8263    5.1480 H   0  0  0  0  0  0  0  0  0  0  0  0
   17.1036   16.3259    4.2965 H   0  0  0  0  0  0  0  0  0  0  0  0
   17.4687   15.3948    6.6672 H   0  0  0  0  0  0  0  0  0  0  0  0
   16.3332   16.7302    7.1711 H   0  0  0  0  0  0  0  0  0  0  0  0
   14.9487   14.8506    6.8964 H   0  0  0  0  0  0  0  0  0  0  0  0
   14.7412   15.8052    5.3890 H   0  0  0  0  0  0  0  0  0  0  0  0
   15.7824   14.3414    5.3890 H   0  0  0  0  0  0  0  0  0  0  0  0
  2  1  2  0
  3  2  1  0
  4  3  2  0
  5  1  1  0
  5  4  1  0
  7  6  1  0
  7  1  1  0
  8  7  2  0
  9  2  1  0
 10  9  2  0
 11  9  1  0
 12  5  1  0
 13 12  1  0
 14 13  1  0
  3 15  1  0
 12 16  1  0
 12 17  1  0
 13 18  1  0
 13 19  1  0
 14 20  1  0
 14 21  1  0
 14 22  1  0
M  CHG  3   6  -1   9   1  11  -1
M  END
$$$$
=
     RDKit          3D

 42 43  0  0  0  0  0  0  0  0999 V2000
   15.7860   16.3180    5.0850 C   0  0  0  0  0  0  0  0  0  0  0  0
   16.9300   15.8640    5.9980 C   0  0  0  0  0  0  0  0  0  0  0  0
   16.6640   15.3310    7.0810 O   0  0  0  0  0  0  0  0  0  0  0  0
   18.2330   16.1230    5.5900 N   0  0  0  0  0  0  0  0  0  0  0  0
   18.5860   16.7630    4.3220 C   0  0  0  0  0  0  0  0  0  0  0  0
   19.9510   17.4360    4.3660 C   0  0  0  0  0  0  0  0  0  0  0  0
   21.0680   16.4520    4.7430 C   0  0  0  0  0  0  0  0  0  0  0  0
   20.5620   15.2930    5.6080 C   0  0  0  0  0  0  0  0  0  0  0  0
   19.3480   15.6950    6.4410 C   0  0  0  0  0  0  0  0  0  0  0  0
   22.1550   17.3130    5.4080 C   0  0  0  0  0  0  0  0  0  0  0  0
   22.5190   18.3400    4.7720 O   0  0  0  0  0  0  0  0  0  0  0  0
   22.5620   16.8700    6.5200 O   0  0  0  0  0  1  0  0  0  0  0  0
   15.6860   15.5260    3.9100 O   0  0  0  0  0  0  0  0  0  0  0  0
   14.9760   13.4480    3.0570 C   0  0  0  0  0  0  0  0  0  0  0  0
   14.0800   12.3810    2.9780 C   0  0  0  0  0  0  0  0  0  0  0  0
   12.8900   12.4260    3.6990 C   0  0  0  0  0  0  0  0  0  0  0  0
   12.6110   13.5280    4.5070 C   0  0  0  0  0  0  0  0  0  0  0  0
   13.5230   14.5860    4.6020 C   0  0  0  0  0  0  0  0  0  0  0  0
   14.7220   14.5540    3.8830 C   0  0  0  0  0  0  0  0  0  0  0  0
   16.1520   13.3440    2.3540 O   0  0  0  0  0  0  0  0  0  0  0  0
   18.3140   13.2240    3.3590 C   0  0  0  0  0  0  0  0  0  0  0  0
   17.0510   12.4530    3.0230 C   0  0  0  0  0  0  0  0  0  0  0  0
   14.8398   16.2461    5.6414 H   0  0  0  0  0  0  0  0  0  0  0  0
   15.9933   17.3531    4.7759 H   0  0  0  0  0  0  0  0  0  0  0  0
   18.5958   15.9978    3.5318 H   0  0  0  0  0  0  0  0  0  0  0  0
   17.8363   17.5428    4.1223 H   0  0  0  0  0  0  0  0  0  0  0  0
   20.1703   17.8586    3.3744 H   0  0  0  0  0  0  0  0  0  0  0  0
   19.9170   18.2211    5.1357 H   0  0  0  0  0  0  0  0  0  0  0  0
   21.4782   15.9326    3.8644 H   0  0  0  0  0  0  0  0  0  0  0  0
   20.2823   14.4552    4.9524 H   0  0  0  0  0  0  0  0  0  0  0  0
   21.3688   15.0035    6.2974 H   0  0  0  0  0  0  0  0  0  0  0  0
   19.0271   14.8334    7.0448 H   0  0  0  0  0  0  0  0  0  0  0  0
   19.6348   16.5386    7.0860 H   0  0  0  0  0  0  0  0  0  0  0  0
   14.3128   11.5089    2.3493 H   0  0  0  0  0  0  0  0  0  0  0  0
   12.1722   11.5952    3.6317 H   0  0  0  0  0  0  0  0  0  0  0  0
   11.6686   13.5661    5.0731 H   0  0  0  0  0  0  0  0  0  0  0  0
   13.2950   15.4479    5.2463 H   0  0  0  0  0  0  0  0  0  0  0  0
   18.4232   13.2906    4.4515 H   0  0  0  0  0  0  0  0  0  0  0  0
   19.1852   12.7035    2.9345 H   0  0  0  0  0  0  0  0  0  0  0  0
   18.2492   14.2367    2.9345 H   0  0  0  0  0  0  0  0  0  0  0  0
   16.5860   12.0780    3.9467 H   0  0  0  0  0  0  0  0  0  0  0  0
   17.2883   11.5946    2.3774 H   0  0  0  0  0  0  0  0  0  0  0  0
  2  1  1  0
  3  2  2  0
  4  2  1  0
  5  4  1  0
  6  5  1  0
  7  6  1  0
  8  7  1  0
  9  8  1  0
  9  4  1  0
 10  7  1  0
 11 10  2  0
 12 10  1  0
 13  1  1  0
 15 14  2  0
 16 15  1  0
 17 16  2  0
 18 17  1  0
 19 18  2  0
 19 14  1  0
 19 13  1  0
 20 14  1  0
 22 20  1  0
 22 21  1  0
  1 23  1  0
  1 24  1  0
  5 25  1  0
  5 26  1  0
  6 27  1  0
  6 28  1  0
  7 29  1  0
  8 30  1  0
  8 31  1  0
  9 32  1  0
  9 33  1  0
 15 34  1  0
 16 35  1  0
 17 36  1  0
 18 37  1  0
 21 38  1  0
 21 39  1  0
 21 40  1  0
 22 41  1  0
 22 42  1  0
M  CHG  1  12  -1
M  END
$$$$
=
     RDKit          3D

 44 44  0  0  0  0  0  0  0  0999 V2000
   17.5050   16.2220    6.2430 C   0  0  0  0  0  0  0  0  0  0  0  0
   18.8610   16.4630    5.8050 N   0  0  0  0  0  0  0  0  0  0  0  0
   19.7810   15.4650    5.6130 C   0  0  0  0  0  0  0  0  0  0  0  0
   19.5580   14.2820    5.8670 O   0  0  0  0  0  0  0  0  0  0  0  0
   21.1040   15.9270    5.0300 C   0  0  0  0  0  0  0  0  0  0  0  0
   21.2690   17.4540    4.9440 C   0  0  1  0  0  0  0  0  0  0  0  0
   22.4600   17.8840    5.8090 C   0  0  0  0  0  0  0  0  0  0  0  0
   21.4090   18.0250    3.5230 C   0  0  0  0  0  0  0  0  0  0  0  0
   20.1540   17.8950    2.6630 C   0  0  0  0  0  0  0  0  0  0  0  0
   20.3400   17.6760    1.4380 O   0  0  0  0  0  0  0  0  0  0  0  0
   19.0680   18.0240    3.3060 O   0  0  0  0  0  1  0  0  0  0  0  0
   16.4560   16.6310    5.1990 C   0  0  0  0  0  0  0  0  0  0  0  0
   15.7630   13.4130    3.2090 C   0  0  0  0  0  0  0  0  0  0  0  0
   16.4290   14.4860    3.8260 C   0  0  0  0  0  0  0  0  0  0  0  0
   15.7320   15.4740    4.5400 C   0  0  0  0  0  0  0  0  0  0  0  0
   14.3450   15.3470    4.6720 C   0  0  0  0  0  0  0  0  0  0  0  0
   13.6770   14.2720    4.0850 C   0  0  0  0  0  0  0  0  0  0  0  0
   14.3700   13.3100    3.3400 C   0  0  0  0  0  0  0  0  0  0  0  0
   17.8010   12.2310    2.9400 C   0  0  0  0  0  0  0  0  0  0  0  0
   16.4410   12.4240    2.5410 O   0  0  0  0  0  0  0  0  0  0  0  0
   13.5490   12.3330    2.8330 O   0  0  0  0  0  0  0  0  0  0  0  0
   12.1700   12.6560    2.7130 C   0  0  0  0  0  0  0  0  0  0  0  0
   17.3901   15.1485    6.4535 H   0  0  0  0  0  0  0  0  0  0  0  0
   17.3344   16.8365    7.1392 H   0  0  0  0  0  0  0  0  0  0  0  0
   19.1513   17.4352    5.6279 H   0  0  0  0  0  0  0  0  0  0  0  0
   21.9136   15.5296    5.6598 H   0  0  0  0  0  0  0  0  0  0  0  0
   21.1366   15.5518    3.9965 H   0  0  0  0  0  0  0  0  0  0  0  0
   20.3261   17.8768    5.3210 H   0  0  0  0  0  0  0  0  0  0  0  0
   22.1945   17.7882    6.8722 H   0  0  0  0  0  0  0  0  0  0  0  0
   23.3249   17.2414    5.5877 H   0  0  0  0  0  0  0  0  0  0  0  0
   22.7149   18.9309    5.5877 H   0  0  0  0  0  0  0  0  0  0  0  0
   21.6606   19.0927    3.6048 H   0  0  0  0  0  0  0  0  0  0  0  0
   22.1929   17.4359    3.0244 H   0  0  0  0  0  0  0  0  0  0  0  0
   15.7071   17.2649    5.6963 H   0  0  0  0  0  0  0  0  0  0  0  0
   17.0018   17.1517    4.3984 H   0  0  0  0  0  0  0  0  0  0  0  0
   17.5241   14.5535    3.7475 H   0  0  0  0  0  0  0  0  0  0  0  0
   13.7784   16.0984    5.2414 H   0  0  0  0  0  0  0  0  0  0  0  0
   12.5881   14.1786    4.2095 H   0  0  0  0  0  0  0  0  0  0  0  0
   17.8632   12.2222    4.0382 H   0  0  0  0  0  0  0  0  0  0  0  0
   18.1666   11.2720    2.5443 H   0  0  0  0  0  0  0  0  0  0  0  0
   18.4190   13.0504    2.5443 H   0  0  0  0  0  0  0  0  0  0  0  0
   11.7290   12.7593    3.7154 H   0  0  0  0  0  0  0  0  0  0  0  0
   12.0617   13.6038    2.1653 H   0  0  0  0  0  0  0  0  0  0  0  0
   11.6521   11.8549    2.1653 H   0  0  0  0  0  0  0  0  0  0  0  0
  2  1  1  0
  3  2  1  0
  4  3  2  0
  5  3  1  0
  6  5  1  0
  7  6  1  0
  8  6  1  0
  9  8  1  0
 10  9  2  0
 11  9  1  0
 12  1  1  0
 14 13  2  0
 15 14  1  0
 15 12  1  0
 16 15  2  0
 17 16  1  0
 18 17  2  0
 18 13  1  0
 20 13  1  0
 20 19  1  0
 21 18  1  0
 22 21  1  0
  1 23  1  0
  1 24  1  0
  2 25  1  0
  5 26  1  0
  5 27  1  0
  6 28  1  1
  7 29  1  0
  7 30  1  0
  7 31  1  0
  8 32  1  0
  8 33  1  0
 12 34  1  0
 12 35  1  0
 14 36  1  0
 16 37  1  0
 17 38  1  0
 19 39  1  0
 19 40  1  0
 19 41  1  0
 22 42  1  0
 22 43  1  0
 22 44  1  0
M  CHG  1  11  -1
M  END
$$$$
=
     RDKit          3D

 23 23  0  0  0  0  0  0  0  0999 V2000
   20.9910   15.4160    7.2540 O   0  0  0  0  0  0  0  0  0  0  0  0
   20.5320   15.5310    6.1160 C   0  0  0  0  0  0  0  0  0  0  0  0
   21.2280   16.3130    5.0380 C   0  0  0  0  0  0  0  0  0  0  0  0
   20.2000   17.2050    4.3670 C   0  0  2  0  0  0  0  0  0  0  0  0
   19.0760   16.4160    3.9030 O   0  0  0  0  0  0  0  0  0  0  0  0
   18.3590   15.7260    4.9320 C   0  0  0  0  0  0  0  0  0  0  0  0
   19.2940   14.7860    5.6930 C   0  0  0  0  0  0  0  0  0  0  0  0
   17.2960   14.8900    4.2030 C   0  0  0  0  0  0  0  0  0  0  0  0
   17.6380   16.7040    5.8710 C   0  0  0  0  0  0  0  0  0  0  0  0
   20.8420   17.9660    3.1710 C   0  0  0  0  0  0  0  0  0  0  0  0
   21.9190   18.5730    3.4460 O   0  0  0  0  0  0  0  0  0  0  0  0
   20.2490   17.8660    2.0560 O   0  0  0  0  0  1  0  0  0  0  0  0
   22.0253   16.9290    5.4794 H   0  0  0  0  0  0  0  0  0  0  0  0
   21.6800   15.6310    4.3027 H   0  0  0  0  0  0  0  0  0  0  0  0
   19.8413   17.9384    5.1042 H   0  0  0  0  0  0  0  0  0  0  0  0
   18.7776   14.3999    6.5843 H   0  0  0  0  0  0  0  0  0  0  0  0
   19.5794   13.9492    5.0386 H   0  0  0  0  0  0  0  0  0  0  0  0
   16.6555   14.3863    4.9419 H   0  0  0  0  0  0  0  0  0  0  0  0
   16.6805   15.5486    3.5726 H   0  0  0  0  0  0  0  0  0  0  0  0
   17.7909   14.1366    3.5726 H   0  0  0  0  0  0  0  0  0  0  0  0
   17.8422   16.4271    6.9158 H   0  0  0  0  0  0  0  0  0  0  0  0
   18.0006   17.7257    5.6849 H   0  0  0  0  0  0  0  0  0  0  0  0
   16.5548   16.6598    5.6849 H   0  0  0  0  0  0  0  0  0  0  0  0
  2  1  2  0
  3  2  1  0
  4  3  1  0
  5  4  1  0
  6  5  1  0
  7  6  1  0
  7  2  1  0
  8  6  1  0
  9  6  1  0
 10  4  1  0
 11 10  2  0
 12 10  1  0
  3 13  1  0
  3 14  1  0
  4 15  1  1
  7 16  1  0
  7 17  1  0
  8 18  1  0
  8 19  1  0
  8 20  1  0
  9 21  1  0
  9 22  1  0
  9 23  1  0
M  CHG  1  12  -1
M  END
$$$$
=
     RDKit          3D

 23 24  0  0  0  0  0  0  0  0999 V2000
   19.8310   15.8600    4.4270 C   0  0  1  0  0  0  0  0  0  0  0  0
   18.9100   14.8320    3.8070 C   0  0  0  0  0  0  0  0  0  0  0  0
   19.1820   13.8820    3.0880 O   0  0  0  0  0  0  0  0  0  0  0  0
   17.5430   15.1360    4.1780 C   0  0  0  0  0  0  0  0  0  0  0  0
   17.5400   16.3450    4.8380 C   0  0  0  0  0  0  0  0  0  0  0  0
   18.8380   16.8590    4.9380 N   0  0  0  0  0  0  0  0  0  0  0  0
   19.2430   18.0580    5.4640 C   0  0  0  0  0  0  0  0  0  0  0  0
   20.4030   18.4680    5.3590 O   0  0  0  0  0  0  0  0  0  0  0  0
   18.2230   18.9230    6.1570 C   0  0  0  0  0  0  0  0  0  0  0  0
   16.4030   16.9420    5.2400 N   0  0  0  0  0  0  0  0  0  0  0  0
   15.2570   16.2540    5.0040 C   0  0  0  0  0  0  0  0  0  0  0  0
   15.1940   15.0200    4.3570 C   0  0  0  0  0  0  0  0  0  0  0  0
   16.3790   14.4410    3.9160 C   0  0  0  0  0  0  0  0  0  0  0  0
   19.9460   14.5090    6.3810 O   0  0  0  0  0  1  0  0  0  0  0  0
   20.6300   15.1450    5.5290 C   0  0  0  0  0  0  0  0  0  0  0  0
   21.8900   15.2840    5.4620 O   0  0  0  0  0  0  0  0  0  0  0  0
   20.5817   16.3371    3.7799 H   0  0  0  0  0  0  0  0  0  0  0  0
   18.3386   18.8250    7.2465 H   0  0  0  0  0  0  0  0  0  0  0  0
   18.3737   19.9729    5.8653 H   0  0  0  0  0  0  0  0  0  0  0  0
   17.2119   18.6029    5.8653 H   0  0  0  0  0  0  0  0  0  0  0  0
   14.3121   16.7008    5.3469 H   0  0  0  0  0  0  0  0  0  0  0  0
   14.2290   14.5162    4.1991 H   0  0  0  0  0  0  0  0  0  0  0  0
   16.3885   13.4777    3.3851 H   0  0  0  0  0  0  0  0  0  0  0  0
  2  1  1  0
  3  2  2  0
  4  2  1  0
  5  4  2  0
  6  5  1  0
  6  1  1  0
  7  6  1  0
  8  7  2  0
  9  7  1  0
 10  5  1  0
 11 10  2  0
 12 11  1  0
 13 12  2  0
 13  4  1  0
 15  1  1  0
 15 14  1  0
 16 15  2  0
  1 17  1  6
  9 18  1  0
  9 19  1  0
  9 20  1  0
 11 21  1  0
 12 22  1  0
 13 23  1  0
M  CHG  1  14  -1
M  END
$$$$
=
     RDKit          3D

 30 30  0  0  0  0  0  0  0  0999 V2000
   19.8400   17.7180    4.2740 C   0  0  2  0  0  0  0  0  0  0  0  0
   18.7840   17.9040    5.3650 C   0  0  0  0  0  0  0  0  0  0  0  0
   18.0720   16.5810    5.4370 N   0  0  2  0  0  4  0  0  0  0  0  0
   18.2910   15.8880    4.0490 C   0  0  1  0  0  0  0  0  0  0  0  0
   19.0800   16.9080    3.2360 C   0  0  0  0  0  0  0  0  0  0  0  0
   19.0650   14.5410    4.2050 C   0  0  0  0  0  0  0  0  0  0  0  0
   19.4640   14.2510    5.3560 O   0  0  0  0  0  0  0  0  0  0  0  0
   19.1660   13.9480    3.0840 O   0  0  0  0  0  1  0  0  0  0  0  0
   16.6860   16.5370    5.9950 C   0  0  0  0  0  0  0  0  0  0  0  0
   16.6080   15.4850    7.1010 C   0  0  0  0  0  0  0  0  0  0  0  0
   15.6700   16.2050    4.9030 C   0  0  0  0  0  0  0  0  0  0  0  0
   22.2100   17.6430    4.6020 C   0  0  0  0  0  0  0  0  0  0  0  0
   20.9480   17.0370    4.8560 O   0  0  0  0  0  0  0  0  0  0  0  0
   20.2626   18.6287    3.8245 H   0  0  0  0  0  0  0  0  0  0  0  0
   19.2591   18.1417    6.3282 H   0  0  0  0  0  0  0  0  0  0  0  0
   18.0977   18.7343    5.1426 H   0  0  0  0  0  0  0  0  0  0  0  0
   18.4971   16.0290    6.1956 H   0  0  0  0  0  0  0  0  0  0  0  0
   17.3441   15.6184    3.5585 H   0  0  0  0  0  0  0  0  0  0  0  0
   19.7767   16.4034    2.5504 H   0  0  0  0  0  0  0  0  0  0  0  0
   18.4296   17.5364    2.6098 H   0  0  0  0  0  0  0  0  0  0  0  0
   16.4469   17.5284    6.4072 H   0  0  0  0  0  0  0  0  0  0  0  0
   16.6448   15.9810    8.0821 H   0  0  0  0  0  0  0  0  0  0  0  0
   15.6659   14.9248    7.0084 H   0  0  0  0  0  0  0  0  0  0  0  0
   17.4572   14.7920    7.0084 H   0  0  0  0  0  0  0  0  0  0  0  0
   14.7217   15.8951    5.3664 H   0  0  0  0  0  0  0  0  0  0  0  0
   15.4995   17.0942    4.2782 H   0  0  0  0  0  0  0  0  0  0  0  0
   16.0574   15.3867    4.2782 H   0  0  0  0  0  0  0  0  0  0  0  0
   22.7021   17.8793    5.5570 H   0  0  0  0  0  0  0  0  0  0  0  0
   22.8406   16.9495    4.0263 H   0  0  0  0  0  0  0  0  0  0  0  0
   22.0630   18.5687    4.0263 H   0  0  0  0  0  0  0  0  0  0  0  0
  2  1  1  0
  3  2  1  0
  4  3  1  0
  5  4  1  0
  5  1  1  0
  6  4  1  0
  7  6  2  0
  8  6  1  0
  9  3  1  0
 10  9  1  0
 11  9  1  0
 13  1  1  0
 13 12  1  0
  1 14  1  6
  2 15  1  0
  2 16  1  0
  3 17  1  1
  4 18  1  6
  5 19  1  0
  5 20  1  0
  9 21  1  0
 10 22  1  0
 10 23  1  0
 10 24  1  0
 11 25  1  0
 11 26  1  0
 11 27  1  0
 12 28  1  0
 12 29  1  0
 12 30  1  0
M  CHG  2   3   1   8  -1
M  END
$$$$
=
     RDKit          3D

 31 32  0  0  0  0  0  0  0  0999 V2000
   19.6860   16.7790    4.6270 C   0  0  0  0  0  0  0  0  0  0  0  0
   19.8060   17.9880    5.5970 C   0  0  0  0  0  0  0  0  0  0  0  0
   21.1890   18.6230    5.5740 C   0  0  0  0  0  0  0  0  0  0  0  0
   21.4930   19.1010    4.2600 O   0  0  0  0  0  0  0  0  0  0  0  0
   21.5330   18.0320    3.3190 C   0  0  0  0  0  0  0  0  0  0  0  0
   20.1890   17.3080    3.2430 C   0  0  0  0  0  0  0  0  0  0  0  0
   18.2070   16.3130    4.5640 C   0  0  0  0  0  0  0  0  0  0  0  0
   17.2040   16.8350    5.4010 C   0  0  0  0  0  0  0  0  0  0  0  0
   15.8790   16.3910    5.3170 C   0  0  0  0  0  0  0  0  0  0  0  0
   15.5210   15.4230    4.3850 C   0  0  0  0  0  0  0  0  0  0  0  0
   16.4880   14.9050    3.5320 C   0  0  0  0  0  0  0  0  0  0  0  0
   17.8110   15.3460    3.6200 C   0  0  0  0  0  0  0  0  0  0  0  0
   20.5730   15.5600    5.0140 C   0  0  0  0  0  0  0  0  0  0  0  0
   21.3760   15.5010    7.2380 O   0  0  0  0  0  1  0  0  0  0  0  0
   20.5300   15.0080    6.4410 C   0  0  0  0  0  0  0  0  0  0  0  0
   19.6240   14.1580    6.6650 O   0  0  0  0  0  0  0  0  0  0  0  0
   19.0650   18.7473    5.3066 H   0  0  0  0  0  0  0  0  0  0  0  0
   19.6278   17.6156    6.6166 H   0  0  0  0  0  0  0  0  0  0  0  0
   21.2137   19.4650    6.2814 H   0  0  0  0  0  0  0  0  0  0  0  0
   21.9349   17.8676    5.8620 H   0  0  0  0  0  0  0  0  0  0  0  0
   21.7781   18.4375    2.3263 H   0  0  0  0  0  0  0  0  0  0  0  0
   22.2975   17.3113    3.6448 H   0  0  0  0  0  0  0  0  0  0  0  0
   19.4391   18.0069    2.8439 H   0  0  0  0  0  0  0  0  0  0  0  0
   20.3298   16.4316    2.5934 H   0  0  0  0  0  0  0  0  0  0  0  0
   17.4665   17.6088    6.1374 H   0  0  0  0  0  0  0  0  0  0  0  0
   15.1175   16.8098    5.9914 H   0  0  0  0  0  0  0  0  0  0  0  0
   14.4809   15.0702    4.3235 H   0  0  0  0  0  0  0  0  0  0  0  0
   16.2113   14.1459    2.7856 H   0  0  0  0  0  0  0  0  0  0  0  0
   18.5623   14.9271    2.9344 H   0  0  0  0  0  0  0  0  0  0  0  0
   20.2886   14.7345    4.3449 H   0  0  0  0  0  0  0  0  0  0  0  0
   21.5968   15.9519    4.9239 H   0  0  0  0  0  0  0  0  0  0  0  0
  2  1  1  0
  3  2  1  0
  4  3  1  0
  5  4  1  0
  6  5  1  0
  6  1  1  0
  7  1  1  0
  8  7  2  0
  9  8  1  0
 10  9  2  0
 11 10  1  0
 12 11  2  0
 12  7  1  0
 13  1  1  0
 15 13  1  0
 15 14  1  0
 16 15  2  0
  2 17  1  0
  2 18  1  0
  3 19  1  0
  3 20  1  0
  5 21  1  0
  5 22  1  0
  6 23  1  0
  6 24  1  0
  8 25  1  0
  9 26  1  0
 10 27  1  0
 11 28  1  0
 12 29  1  0
 13 30  1  0
 13 31  1  0
M  CHG  1  14  -1
M  END
$$$$
=
     RDKit          3D

 30 30  0  0  0  0  0  0  0  0999 V2000
   16.7740   15.4110    4.2910 C   0  0  0  0  0  0  0  0  0  0  0  0
   15.6110   15.9590    4.8300 C   0  0  0  0  0  0  0  0  0  0  0  0
   14.3910   15.3140    4.6340 C   0  0  0  0  0  0  0  0  0  0  0  0
   14.3210   14.1120    3.9110 C   0  0  0  0  0  0  0  0  0  0  0  0
   15.5140   13.5620    3.3990 C   0  0  0  0  0  0  0  0  0  0  0  0
   16.7470   14.1950    3.5900 C   0  0  0  0  0  0  0  0  0  0  0  0
   12.9930   13.4140    3.6860 C   0  0  0  0  0  0  0  0  0  0  0  0
   12.9260   12.6060    2.7060 O   0  0  0  0  0  0  0  0  0  0  0  0
   12.0490   13.6940    4.4890 O   0  0  0  0  0  1  0  0  0  0  0  0
   17.9520   13.7260    3.1310 O   0  0  0  0  0  0  0  0  0  0  0  0
   18.1600   12.3230    3.2250 C   0  0  0  0  0  0  0  0  0  0  0  0
   17.9550   16.0740    4.5160 O   0  0  0  0  0  0  0  0  0  0  0  0
   18.1540   16.2540    5.9220 C   0  0  0  0  0  0  0  0  0  0  0  0
   18.8500   15.0180    6.4800 C   0  0  0  0  0  0  0  0  0  0  0  0
   20.3060   14.9420    6.0290 C   0  0  0  0  0  0  0  0  0  0  0  0
   22.5660   17.3290    6.2240 N   0  0  0  0  0  2  0  0  0  0  0  0
   21.8860   16.5000    6.6100 N   0  0  0  0  0  4  0  0  0  0  0  0
   21.1440   15.6000    7.0430 N   0  0  0  0  0  0  0  0  0  0  0  0
   15.6558   16.8948    5.4065 H   0  0  0  0  0  0  0  0  0  0  0  0
   13.4719   15.7517    5.0507 H   0  0  0  0  0  0  0  0  0  0  0  0
   15.4746   12.6165    2.8383 H   0  0  0  0  0  0  0  0  0  0  0  0
   18.2036   12.0289    4.2841 H   0  0  0  0  0  0  0  0  0  0  0  0
   17.3302   11.7955    2.7318 H   0  0  0  0  0  0  0  0  0  0  0  0
   19.1071   12.0589    2.7318 H   0  0  0  0  0  0  0  0  0  0  0  0
   18.7799   17.1416    6.0965 H   0  0  0  0  0  0  0  0  0  0  0  0
   17.1847   16.3959    6.4223 H   0  0  0  0  0  0  0  0  0  0  0  0
   18.8181   15.0558    7.5789 H   0  0  0  0  0  0  0  0  0  0  0  0
   18.3257   14.1278    6.1024 H   0  0  0  0  0  0  0  0  0  0  0  0
   20.6076   13.8893    5.9247 H   0  0  0  0  0  0  0  0  0  0  0  0
   20.4262   15.4438    5.0576 H   0  0  0  0  0  0  0  0  0  0  0  0
  2  1  2  0
  3  2  1  0
  4  3  2  0
  5  4  1  0
  6  5  2  0
  6  1  1  0
  7  4  1  0
  8  7  2  0
  9  7  1  0
 10  6  1  0
 11 10  1  0
 12  1  1  0
 13 12  1  0
 14 13  1  0
 15 14  1  0
 17 16  2  0
 18 15  1  0
 18 17  2  0
  2 19  1  0
  3 20  1  0
  5 21  1  0
 11 22  1  0
 11 23  1  0
 11 24  1  0
 13 25  1  0
 13 26  1  0
 14 27  1  0
 14 28  1  0
 15 29  1  0
 15 30  1  0
M  CHG  3   9  -1  16  -1  17   1
M  END
$$$$
=
     RDKit          3D

 25 26  0  0  0  0  0  0  0  0999 V2000
   20.2790   15.5580    4.4270 N   0  0  0  0  0  0  0  0  0  0  0  0
   20.0070   16.6640    3.6830 N   0  0  0  0  0  0  0  0  0  0  0  0
   18.7460   16.4730    3.2810 C   0  0  0  0  0  0  0  0  0  0  0  0
   18.2040   15.2620    3.7540 C   0  0  0  0  0  0  0  0  0  0  0  0
   19.2160   14.6970    4.4880 C   0  0  0  0  0  0  0  0  0  0  0  0
   16.9690   14.6660    3.5940 N   0  0  0  0  0  0  0  0  0  0  0  0
   15.8180   15.0360    4.2690 C   0  0  0  0  0  0  0  0  0  0  0  0
   15.7710   15.9460    5.0940 O   0  0  0  0  0  0  0  0  0  0  0  0
   14.6470   14.2430    3.9140 C   0  0  0  0  0  0  0  0  0  0  0  0
   14.4740   13.0310    3.2610 C   0  0  0  0  0  0  0  0  0  0  0  0
   13.0810   12.7760    3.2170 C   0  0  0  0  0  0  0  0  0  0  0  0
   12.4800   13.8410    3.8420 C   0  0  0  0  0  0  0  0  0  0  0  0
   13.4120   14.7290    4.2650 O   0  0  0  0  0  0  0  0  0  0  0  0
   21.5910   15.4340    5.0300 C   0  0  0  0  0  0  0  0  0  0  0  0
   21.0990   15.5790    7.3310 O   0  0  0  0  0  1  0  0  0  0  0  0
   21.6890   16.1400    6.3640 C   0  0  0  0  0  0  0  0  0  0  0  0
   22.3570   17.2160    6.3700 O   0  0  0  0  0  0  0  0  0  0  0  0
   18.1925   17.1839    2.6499 H   0  0  0  0  0  0  0  0  0  0  0  0
   19.1803   13.7365    5.0229 H   0  0  0  0  0  0  0  0  0  0  0  0
   16.8986   13.8882    2.9225 H   0  0  0  0  0  0  0  0  0  0  0  0
   15.2690   12.3888    2.8540 H   0  0  0  0  0  0  0  0  0  0  0  0
   12.5821   11.9022    2.7724 H   0  0  0  0  0  0  0  0  0  0  0  0
   11.3948   13.9568    3.9798 H   0  0  0  0  0  0  0  0  0  0  0  0
   21.8100   14.3665    5.1798 H   0  0  0  0  0  0  0  0  0  0  0  0
   22.3153   15.9062    4.3500 H   0  0  0  0  0  0  0  0  0  0  0  0
  2  1  1  0
  3  2  2  0
  4  3  1  0
  5  4  2  0
  5  1  1  0
  6  4  1  0
  7  6  1  0
  8  7  2  0
  9  7  1  0
 10  9  2  0
 11 10  1  0
 12 11  2  0
 13 12  1  0
 13  9  1  0
 14  1  1  0
 16 14  1  0
 16 15  1  0
 17 16  2  0
  3 18  1  0
  5 19  1  0
  6 20  1  0
 10 21  1  0
 11 22  1  0
 12 23  1  0
 14 24  1  0
 14 25  1  0
M  CHG  1  15  -1
M  END
$$$$
=
     RDKit          3D

 28 28  0  0  0  0  0  0  0  0999 V2000
   18.6260   14.3300    4.4890 O   0  0  0  0  0  0  0  0  0  0  0  0
   18.1360   15.3410    4.0020 C   0  0  0  0  0  0  0  0  0  0  0  0
   16.8210   15.4890    3.5950 N   0  0  0  0  0  0  0  0  0  0  0  0
   18.7880   16.5420    3.8170 N   0  0  0  0  0  0  0  0  0  0  0  0
   15.8070   14.5220    3.5450 C   0  0  0  0  0  0  0  0  0  0  0  0
   14.6320   14.7870    4.2610 C   0  0  0  0  0  0  0  0  0  0  0  0
   13.5740   13.8750    4.2510 C   0  0  0  0  0  0  0  0  0  0  0  0
   13.6930   12.7000    3.5200 C   0  0  0  0  0  0  0  0  0  0  0  0
   14.8470   12.4220    2.7990 C   0  0  0  0  0  0  0  0  0  0  0  0
   15.9050   13.3370    2.8110 C   0  0  0  0  0  0  0  0  0  0  0  0
   12.6780   11.8250    3.5090 F   0  0  0  0  0  0  0  0  0  0  0  0
   20.2320   16.7010    4.1040 C   0  0  1  0  0  0  0  0  0  0  0  0
   20.8530   17.8260    3.1930 C   0  0  0  0  0  0  0  0  0  0  0  0
   21.7860   18.5220    3.6870 O   0  0  0  0  0  0  0  0  0  0  0  0
   20.3290   17.9080    2.0310 O   0  0  0  0  0  1  0  0  0  0  0  0
   20.4300   17.1920    5.5390 C   0  0  0  0  0  0  0  0  0  0  0  0
   21.4080   16.3480    6.3470 C   0  0  0  0  0  0  0  0  0  0  0  0
   22.5830   16.8040    6.4640 O   0  0  0  0  0  0  0  0  0  0  0  0
   20.9170   15.3060    6.8820 O   0  0  0  0  0  1  0  0  0  0  0  0
   16.5520   16.4348    3.2883 H   0  0  0  0  0  0  0  0  0  0  0  0
   18.2551   17.3519    3.4691 H   0  0  0  0  0  0  0  0  0  0  0  0
   14.5420   15.7207    4.8356 H   0  0  0  0  0  0  0  0  0  0  0  0
   12.6546   14.0855    4.8171 H   0  0  0  0  0  0  0  0  0  0  0  0
   14.9285   11.4887    2.2225 H   0  0  0  0  0  0  0  0  0  0  0  0
   16.8198   13.1224    2.2391 H   0  0  0  0  0  0  0  0  0  0  0  0
   20.7072   15.7244    3.9293 H   0  0  0  0  0  0  0  0  0  0  0  0
   20.8092   18.2240    5.5035 H   0  0  0  0  0  0  0  0  0  0  0  0
   19.4536   17.1200    6.0404 H   0  0  0  0  0  0  0  0  0  0  0  0
  2  1  2  0
  3  2  1  0
  4  2  1  0
  5  3  1  0
  6  5  2  0
  7  6  1  0
  8  7  2  0
  9  8  1  0
 10  9  2  0
 10  5  1  0
 11  8  1  0
 12  4  1  0
 13 12  1  0
 14 13  2  0
 15 13  1  0
 16 12  1  0
 17 16  1  0
 18 17  2  0
 19 17  1  0
  3 20  1  0
  4 21  1  0
  6 22  1  0
  7 23  1  0
  9 24  1  0
 10 25  1  0
 12 26  1  1
 16 27  1  0
 16 28  1  0
M  CHG  2  15  -1  19  -1
M  END
$$$$
=
     RDKit          3D

 67 70  0  0  0  0  0  0  0  0999 V2000
   14.3150   13.6490    3.9900 C   0  0  1  0  0  0  0  0  0  0  0  0
   14.8810   12.6280    2.9780 C   0  0  0  0  0  0  0  0  0  0  0  0
   16.3940   12.9240    2.8940 C   0  0  0  0  0  0  0  0  0  0  0  0
   16.6310   14.0340    3.9240 C   0  0  2  0  0  0  0  0  0  0  0  0
   15.3130   14.8460    3.8910 C   0  0  1  0  0  0  0  0  0  0  0  0
   15.1440   15.6540    2.5820 C   0  0  0  0  0  0  0  0  0  0  0  0
   15.3180   15.8200    5.0870 C   0  0  2  0  0  0  0  0  0  0  0  0
   16.5400   16.7520    5.0290 C   0  0  0  0  0  0  0  0  0  0  0  0
   17.9130   16.0330    4.8600 C   0  0  1  0  0  0  0  0  0  0  0  0
   17.9000   14.8890    3.7950 C   0  0  1  0  0  0  0  0  0  0  0  0
   19.2060   14.0560    3.8680 C   0  0  1  0  0  0  0  0  0  0  0  0
   20.3660   14.7810    4.5460 C   0  0  0  0  0  0  0  0  0  0  0  0
   20.4310   16.2720    4.2090 C   0  0  1  0  0  0  0  0  0  0  0  0
   19.1150   17.0410    4.6010 C   0  0  1  0  0  0  0  0  0  0  0  0
   18.7690   18.0160    3.4410 C   0  0  0  0  0  0  0  0  0  0  0  0
   19.3680   17.8780    5.8830 C   0  0  0  0  0  0  0  0  0  0  0  0
   20.5230   18.8760    5.7660 C   0  0  0  0  0  0  0  0  0  0  0  0
   21.7070   18.3610    4.9550 C   0  0  0  0  0  0  0  0  0  0  0  0
   21.7110   16.8450    4.8590 C   0  0  0  0  0  0  0  0  0  0  0  0
   12.7910   13.9340    3.9350 C   0  0  2  0  0  0  0  0  0  0  0  0
   12.1770   13.6360    5.3160 C   0  0  0  0  0  0  0  0  0  0  0  0
   12.0050   13.1670    2.8470 C   0  0  0  0  0  0  0  0  0  0  0  0
   10.5010   13.0580    3.1190 C   0  0  0  0  0  0  0  0  0  0  0  0
    8.5090   12.0020    2.3610 O   0  0  0  0  0  1  0  0  0  0  0  0
    9.7650   11.9000    2.4370 C   0  0  0  0  0  0  0  0  0  0  0  0
   10.5200   10.9730    2.0260 O   0  0  0  0  0  0  0  0  0  0  0  0
   15.3650   15.1230    6.3350 O   0  0  0  0  0  0  0  0  0  0  0  0
   19.0450   12.8160    4.5600 O   0  0  0  0  0  0  0  0  0  0  0  0
   14.2836   13.2550    5.0165 H   0  0  0  0  0  0  0  0  0  0  0  0
   14.7095   11.6007    3.3319 H   0  0  0  0  0  0  0  0  0  0  0  0
   14.3936   12.7146    1.9957 H   0  0  0  0  0  0  0  0  0  0  0  0
   16.9793   12.0279    3.1478 H   0  0  0  0  0  0  0  0  0  0  0  0
   16.7041   13.2224    1.8817 H   0  0  0  0  0  0  0  0  0  0  0  0
   16.8568   13.5847    4.9023 H   0  0  0  0  0  0  0  0  0  0  0  0
   14.9244   16.7041    2.8251 H   0  0  0  0  0  0  0  0  0  0  0  0
   16.0729   15.6000    1.9953 H   0  0  0  0  0  0  0  0  0  0  0  0
   14.3146   15.2322    1.9953 H   0  0  0  0  0  0  0  0  0  0  0  0
   14.3858   16.4000    5.0197 H   0  0  0  0  0  0  0  0  0  0  0  0
   16.4066   17.4361    4.1780 H   0  0  0  0  0  0  0  0  0  0  0  0
   16.5805   17.2648    6.0013 H   0  0  0  0  0  0  0  0  0  0  0  0
   18.0890   15.5524    5.8337 H   0  0  0  0  0  0  0  0  0  0  0  0
   17.8702   15.3366    2.7906 H   0  0  0  0  0  0  0  0  0  0  0  0
   19.4407   13.8823    2.8075 H   0  0  0  0  0  0  0  0  0  0  0  0
   20.2550   14.6742    5.6352 H   0  0  0  0  0  0  0  0  0  0  0  0
   21.2955   14.3237    4.1759 H   0  0  0  0  0  0  0  0  0  0  0  0
   20.4929   16.4130    3.1198 H   0  0  0  0  0  0  0  0  0  0  0  0
   18.4285   18.9754    3.8577 H   0  0  0  0  0  0  0  0  0  0  0  0
   19.6632   18.1817    2.8222 H   0  0  0  0  0  0  0  0  0  0  0  0
   17.9704   17.5809    2.8222 H   0  0  0  0  0  0  0  0  0  0  0  0
   18.4505   18.4386    6.1151 H   0  0  0  0  0  0  0  0  0  0  0  0
   19.6457   17.1661    6.6743 H   0  0  0  0  0  0  0  0  0  0  0  0
   20.1439   19.7889    5.2834 H   0  0  0  0  0  0  0  0  0  0  0  0
   20.8911   19.0583    6.7864 H   0  0  0  0  0  0  0  0  0  0  0  0
   21.6527   18.7815    3.9400 H   0  0  0  0  0  0  0  0  0  0  0  0
   22.6307   18.6729    5.4644 H   0  0  0  0  0  0  0  0  0  0  0  0
   21.8031   16.4308    5.8739 H   0  0  0  0  0  0  0  0  0  0  0  0
   22.5583   16.5606    4.2178 H   0  0  0  0  0  0  0  0  0  0  0  0
   12.6995   14.9946    3.6579 H   0  0  0  0  0  0  0  0  0  0  0  0
   12.8673   13.9710    6.1042 H   0  0  0  0  0  0  0  0  0  0  0  0
   11.2205   14.1701    5.4150 H   0  0  0  0  0  0  0  0  0  0  0  0
   12.0048   12.5541    5.4150 H   0  0  0  0  0  0  0  0  0  0  0  0
   12.1455   13.6875    1.8882 H   0  0  0  0  0  0  0  0  0  0  0  0
   12.3998   12.1403    2.8359 H   0  0  0  0  0  0  0  0  0  0  0  0
   10.3650   12.9471    4.2049 H   0  0  0  0  0  0  0  0  0  0  0  0
   10.0614   13.9726    2.6945 H   0  0  0  0  0  0  0  0  0  0  0  0
   15.3210   15.7748    7.0789 H   0  0  0  0  0  0  0  0  0  0  0  0
   19.0660   12.9779    5.5365 H   0  0  0  0  0  0  0  0  0  0  0  0
  2  1  1  0
  3  2  1  0
  4  3  1  0
  5  1  1  0
  5  4  1  0
  5  6  1  6
  7  5  1  0
  8  7  1  0
  9  8  1  0
 10  9  1  0
 10  4  1  0
 11 10  1  0
 12 11  1  0
 13 12  1  0
 14 13  1  0
 14  9  1  0
 14 15  1  6
 16 14  1  0
 17 16  1  0
 18 17  1  0
 19 13  1  0
 19 18  1  0
 20  1  1  0
 21 20  1  0
 22 20  1  0
 23 22  1  0
 25 24  1  0
 25 23  1  0
 26 25  2  0
 27  7  1  0
 28 11  1  0
  1 29  1  1
  2 30  1  0
  2 31  1  0
  3 32  1  0
  3 33  1  0
  4 34  1  1
  6 35  1  0
  6 36  1  0
  6 37  1  0
  7 38  1  1
  8 39  1  0
  8 40  1  0
  9 41  1  1
 10 42  1  6
 11 43  1  6
 12 44  1  0
 12 45  1  0
 13 46  1  6
 15 47  1  0
 15 48  1  0
 15 49  1  0
 16 50  1  0
 16 51  1  0
 17 52  1  0
 17 53  1  0
 18 54  1  0
 18 55  1  0
 19 56  1  0
 19 57  1  0
 20 58  1  6
 21 59  1  0
 21 60  1  0
 21 61  1  0
 22 62  1  0
 22 63  1  0
 23 64  1  0
 23 65  1  0
 27 66  1  0
 28 67  1  0
M  CHG  1  24  -1
M  END
$$$$
=
     RDKit          3D

 34 35  0  0  0  0  0  0  0  0999 V2000
   17.9140   15.7450    3.8470 N   0  0  0  0  0  0  0  0  0  0  0  0
   16.7500   15.8930    4.5740 C   0  0  0  0  0  0  0  0  0  0  0  0
   16.6440   16.7270    5.4810 O   0  0  0  0  0  0  0  0  0  0  0  0
   21.0020   17.1350    4.8500 N   0  0  0  0  0  0  0  0  0  0  0  0
   20.7270   18.0520    3.9000 N   0  0  0  0  0  0  0  0  0  0  0  0
   19.5480   17.6490    3.4120 C   0  0  0  0  0  0  0  0  0  0  0  0
   19.0730   16.4790    4.0380 C   0  0  0  0  0  0  0  0  0  0  0  0
   20.0470   16.1560    4.9640 C   0  0  0  0  0  0  0  0  0  0  0  0
   20.1150   15.0130    5.9130 C   0  0  0  0  0  0  0  0  0  0  0  0
   23.1040   18.4010    5.0820 C   0  0  0  0  0  0  0  0  0  0  0  0
   22.2220   17.2880    5.6190 C   0  0  0  0  0  0  0  0  0  0  0  0
   15.6070   14.9980    4.2210 C   0  0  0  0  0  0  0  0  0  0  0  0
   14.3580   15.3740    4.6070 N   0  0  0  0  0  0  0  0  0  0  0  0
   13.5440   14.4060    4.1670 N   0  0  0  0  0  0  0  0  0  0  0  0
   14.1800   13.4120    3.5130 C   0  0  0  0  0  0  0  0  0  0  0  0
   15.5170   13.7530    3.5240 C   0  0  0  0  0  0  0  0  0  0  0  0
   12.1310   14.5080    4.4210 C   0  0  0  0  0  0  0  0  0  0  0  0
   16.6310   12.8820    2.8760 C   0  0  0  0  0  0  0  0  0  0  0  0
   16.2800   12.1410    1.9100 O   0  0  0  0  0  0  0  0  0  0  0  0
   17.7960   12.9820    3.3650 O   0  0  0  0  0  1  0  0  0  0  0  0
   17.9213   15.0322    3.1035 H   0  0  0  0  0  0  0  0  0  0  0  0
   19.0084   18.1736    2.6098 H   0  0  0  0  0  0  0  0  0  0  0  0
   20.0925   15.3918    6.9455 H   0  0  0  0  0  0  0  0  0  0  0  0
   19.2549   14.3475    5.7477 H   0  0  0  0  0  0  0  0  0  0  0  0
   21.0480   14.4542    5.7477 H   0  0  0  0  0  0  0  0  0  0  0  0
   23.5448   18.9573    5.9224 H   0  0  0  0  0  0  0  0  0  0  0  0
   23.9070   17.9682    4.4673 H   0  0  0  0  0  0  0  0  0  0  0  0
   22.4992   19.0839    4.4673 H   0  0  0  0  0  0  0  0  0  0  0  0
   21.9569   17.5181    6.6615 H   0  0  0  0  0  0  0  0  0  0  0  0
   22.7861   16.3464    5.5473 H   0  0  0  0  0  0  0  0  0  0  0  0
   13.7268   12.5158    3.0642 H   0  0  0  0  0  0  0  0  0  0  0  0
   11.9536   14.5208    5.5065 H   0  0  0  0  0  0  0  0  0  0  0  0
   11.7444   15.4364    3.9753 H   0  0  0  0  0  0  0  0  0  0  0  0
   11.6151   13.6448    3.9753 H   0  0  0  0  0  0  0  0  0  0  0  0
  2  1  1  0
  3  2  2  0
  5  4  1  0
  6  5  2  0
  7  1  1  0
  7  6  1  0
  8  7  2  0
  8  4  1  0
  9  8  1  0
 11  4  1  0
 11 10  1  0
 12  2  1  0
 13 12  2  0
 14 13  1  0
 15 14  1  0
 16 15  2  0
 16 12  1  0
 17 14  1  0
 18 16  1  0
 19 18  2  0
 20 18  1  0
  1 21  1  0
  6 22  1  0
  9 23  1  0
  9 24  1  0
  9 25  1  0
 10 26  1  0
 10 27  1  0
 10 28  1  0
 11 29  1  0
 11 30  1  0
 15 31  1  0
 17 32  1  0
 17 33  1  0
 17 34  1  0
M  CHG  1  20  -1
M  END
$$$$
=
     RDKit          3D

 38 39  0  0  0  0  0  0  0  0999 V2000
   15.4850   15.4400    4.4400 C   0  0  0  0  0  0  0  0  0  0  0  0
   16.4140   14.7010    3.7010 C   0  0  0  0  0  0  0  0  0  0  0  0
   17.7570   14.6660    4.0820 C   0  0  0  0  0  0  0  0  0  0  0  0
   18.1710   15.3750    5.2110 C   0  0  0  0  0  0  0  0  0  0  0  0
   17.2620   16.1550    5.9250 C   0  0  0  0  0  0  0  0  0  0  0  0
   15.9160   16.1750    5.5470 C   0  0  0  0  0  0  0  0  0  0  0  0
   19.5980   15.3410    5.5890 C   0  0  0  0  0  0  0  0  0  0  0  0
   19.9580   14.4540    6.3630 O   0  0  0  0  0  0  0  0  0  0  0  0
   20.4280   16.3410    5.1240 N   0  0  0  0  0  0  0  0  0  0  0  0
   21.8190   16.3910    5.5060 C   0  0  0  0  0  0  0  0  0  0  0  0
   22.1340   17.8760    5.5110 C   0  0  0  0  0  0  0  0  0  0  0  0
   21.3230   18.4060    4.3350 C   0  0  0  0  0  0  0  0  0  0  0  0
   20.0570   17.5350    4.3180 C   0  0  1  0  0  0  0  0  0  0  0  0
   19.7250   17.3380    2.8120 C   0  0  0  0  0  0  0  0  0  0  0  0
   19.9980   16.2070    2.3150 O   0  0  0  0  0  0  0  0  0  0  0  0
   19.2210   18.3540    2.2470 O   0  0  0  0  0  1  0  0  0  0  0  0
   14.1980   15.3760    3.9760 O   0  0  0  0  0  0  0  0  0  0  0  0
   13.3260   14.4750    4.6600 C   0  0  0  0  0  0  0  0  0  0  0  0
   13.4220   12.5630    3.0190 C   0  0  0  0  0  0  0  0  0  0  0  0
   12.5680   13.6710    3.6060 C   0  0  0  0  0  0  0  0  0  0  0  0
   16.0843   14.1427    2.8124 H   0  0  0  0  0  0  0  0  0  0  0  0
   18.4837   14.0837    3.4965 H   0  0  0  0  0  0  0  0  0  0  0  0
   17.6029   16.7528    6.7831 H   0  0  0  0  0  0  0  0  0  0  0  0
   15.1938   16.7717    6.1235 H   0  0  0  0  0  0  0  0  0  0  0  0
   21.9681   15.9544    6.5046 H   0  0  0  0  0  0  0  0  0  0  0  0
   22.4694   15.8181    4.8286 H   0  0  0  0  0  0  0  0  0  0  0  0
   21.8145   18.3441    6.4538 H   0  0  0  0  0  0  0  0  0  0  0  0
   23.2096   18.0898    5.4254 H   0  0  0  0  0  0  0  0  0  0  0  0
   21.0648   19.4645    4.4862 H   0  0  0  0  0  0  0  0  0  0  0  0
   21.8785   18.3557    3.3869 H   0  0  0  0  0  0  0  0  0  0  0  0
   19.1312   17.9255    4.7658 H   0  0  0  0  0  0  0  0  0  0  0  0
   13.9129   13.7973    5.2974 H   0  0  0  0  0  0  0  0  0  0  0  0
   12.6237   15.0300    5.2994 H   0  0  0  0  0  0  0  0  0  0  0  0
   13.8734   11.9774    3.8334 H   0  0  0  0  0  0  0  0  0  0  0  0
   12.7946   11.9058    2.3990 H   0  0  0  0  0  0  0  0  0  0  0  0
   14.2173   13.0024    2.3990 H   0  0  0  0  0  0  0  0  0  0  0  0
   12.2583   14.3484    2.7965 H   0  0  0  0  0  0  0  0  0  0  0  0
   11.6956   13.2090    4.0912 H   0  0  0  0  0  0  0  0  0  0  0  0
  2  1  2  0
  3  2  1  0
  4  3  2  0
  5  4  1  0
  6  1  1  0
  6  5  2  0
  7  4  1  0
  8  7  2  0
  9  7  1  0
 10  9  1  0
 11 10  1  0
 12 11  1  0
 13  9  1  0
 13 12  1  0
 14 13  1  0
 15 14  2  0
 16 14  1  0
 17  1  1  0
 18 17  1  0
 20 19  1  0
 20 18  1  0
  2 21  1  0
  3 22  1  0
  5 23  1  0
  6 24  1  0
 10 25  1  0
 10 26  1  0
 11 27  1  0
 11 28  1  0
 12 29  1  0
 12 30  1  0
 13 31  1  1
 18 32  1  0
 18 33  1  0
 19 34  1  0
 19 35  1  0
 19 36  1  0
 20 37  1  0
 20 38  1  0
M  CHG  1  16  -1
M  END
$$$$
=
     RDKit          3D

 41 43  0  0  0  0  0  0  0  0999 V2000
   16.8740   12.0420    2.1420 O   0  0  0  0  0  0  0  0  0  0  0  0
   16.8550   12.9770    2.9360 C   0  0  0  0  0  0  0  0  0  0  0  0
   15.7160   13.5620    3.4970 N   0  0  0  0  0  0  0  0  0  0  0  0
   14.4230   13.1460    3.3320 N   0  0  0  0  0  0  0  0  0  0  0  0
   13.4550   13.9370    3.6750 C   0  0  0  0  0  0  0  0  0  0  0  0
   12.0380   13.5460    3.5110 C   0  0  0  0  0  0  0  0  0  0  0  0
   11.7260   12.5200    2.6160 C   0  0  0  0  0  0  0  0  0  0  0  0
   10.3930   12.1470    2.4270 C   0  0  0  0  0  0  0  0  0  0  0  0
    9.3550   12.7900    3.1240 C   0  0  0  0  0  0  0  0  0  0  0  0
    9.6930   13.8150    4.0250 C   0  0  0  0  0  0  0  0  0  0  0  0
   11.0240   14.1930    4.2200 C   0  0  0  0  0  0  0  0  0  0  0  0
    7.9080   12.3870    2.9080 C   0  0  0  0  0  0  0  0  0  0  0  0
    7.1410   12.4270    3.9220 O   0  0  0  0  0  0  0  0  0  0  0  0
    7.5740   12.0380    1.7320 O   0  0  0  0  0  1  0  0  0  0  0  0
   18.1310   13.6680    3.4370 C   0  0  0  0  0  0  0  0  0  0  0  0
   17.9710   14.6360    4.4600 O   0  0  0  0  0  0  0  0  0  0  0  0
   19.0970   15.2360    4.9540 C   0  0  0  0  0  0  0  0  0  0  0  0
   19.7810   14.8730    6.1120 C   0  0  0  0  0  0  0  0  0  0  0  0
   20.9250   15.5790    6.5010 C   0  0  0  0  0  0  0  0  0  0  0  0
   21.4000   16.6600    5.7440 C   0  0  0  0  0  0  0  0  0  0  0  0
   20.7050   17.0380    4.5760 C   0  0  0  0  0  0  0  0  0  0  0  0
   19.5560   16.3200    4.2000 C   0  0  0  0  0  0  0  0  0  0  0  0
   21.1730   18.1240    3.8170 C   0  0  0  0  0  0  0  0  0  0  0  0
   22.3150   18.8260    4.2070 C   0  0  0  0  0  0  0  0  0  0  0  0
   23.0020   18.4520    5.3590 C   0  0  0  0  0  0  0  0  0  0  0  0
   22.5470   17.3760    6.1240 C   0  0  0  0  0  0  0  0  0  0  0  0
   15.8649   14.3882    4.0938 H   0  0  0  0  0  0  0  0  0  0  0  0
   13.6934   14.9238    4.0987 H   0  0  0  0  0  0  0  0  0  0  0  0
   12.5266   12.0078    2.0622 H   0  0  0  0  0  0  0  0  0  0  0  0
   10.1518   11.3378    1.7220 H   0  0  0  0  0  0  0  0  0  0  0  0
    8.8971   14.3275    4.5853 H   0  0  0  0  0  0  0  0  0  0  0  0
   11.2718   14.9967    4.9289 H   0  0  0  0  0  0  0  0  0  0  0  0
   18.8047   12.8871    3.8195 H   0  0  0  0  0  0  0  0  0  0  0  0
   18.5177   14.2244    2.5705 H   0  0  0  0  0  0  0  0  0  0  0  0
   19.4216   14.0306    6.7212 H   0  0  0  0  0  0  0  0  0  0  0  0
   21.4601   15.2814    7.4149 H   0  0  0  0  0  0  0  0  0  0  0  0
   19.0072   16.6173    3.2942 H   0  0  0  0  0  0  0  0  0  0  0  0
   20.6341   18.4241    2.9062 H   0  0  0  0  0  0  0  0  0  0  0  0
   22.6720   19.6743    3.6045 H   0  0  0  0  0  0  0  0  0  0  0  0
   23.9026   19.0038    5.6663 H   0  0  0  0  0  0  0  0  0  0  0  0
   23.0928   17.0861    7.0340 H   0  0  0  0  0  0  0  0  0  0  0  0
  2  1  2  0
  3  2  1  0
  4  3  1  0
  5  4  2  0
  6  5  1  0
  7  6  2  0
  8  7  1  0
  9  8  2  0
 10  9  1  0
 11 10  2  0
 11  6  1  0
 12  9  1  0
 13 12  2  0
 14 12  1  0
 15  2  1  0
 16 15  1  0
 17 16  1  0
 18 17  2  0
 19 18  1  0
 20 19  2  0
 21 20  1  0
 22 17  1  0
 22 21  2  0
 23 21  1  0
 24 23  2  0
 25 24  1  0
 26 20  1  0
 26 25  2  0
  3 27  1  0
  5 28  1  0
  7 29  1  0
  8 30  1  0
 10 31  1  0
 11 32  1  0
 15 33  1  0
 15 34  1  0
 18 35  1  0
 19 36  1  0
 22 37  1  0
 23 38  1  0
 24 39  1  0
 25 40  1  0
 26 41  1  0
M  CHG  1  14  -1
M  END
$$$$
=
     RDKit          3D

 31 33  0  0  0  0  0  0  0  0999 V2000
   24.9380   27.2780   16.0990 C   0  0  2  0  0  0  0  0  0  0  0  0
   24.7740   26.4150   14.9590 O   0  0  0  0  0  0  0  0  0  0  0  0
   25.8180   26.4150   14.0760 C   0  0  0  0  0  0  0  0  0  0  0  0
   25.4940   25.8730   12.8240 C   0  0  0  0  0  0  0  0  0  0  0  0
   26.4500   25.7960   11.8210 C   0  0  0  0  0  0  0  0  0  0  0  0
   27.7270   26.2580   12.0850 C   0  0  0  0  0  0  0  0  0  0  0  0
   28.0620   26.7850   13.3320 C   0  0  0  0  0  0  0  0  0  0  0  0
   27.1170   26.8700   14.3720 C   0  0  0  0  0  0  0  0  0  0  0  0
   27.4410   27.4320   15.7560 C   0  0  0  0  0  0  0  0  0  0  0  0
   26.3030   27.0370   16.7300 C   0  0  0  0  0  0  0  0  0  0  0  0
   28.9400   26.6750   16.5560 S   0  0  0  0  0  0  0  0  0  0  0  0
   30.3490   27.5910   15.8890 C   0  0  0  0  0  0  0  0  0  0  0  0
   30.2340   29.1000   15.9530 C   0  0  0  0  0  0  0  0  0  0  0  0
   29.1240   29.6470   15.0820 C   0  0  0  0  0  0  0  0  0  0  0  0
   27.4960   29.2840   15.7610 S   0  0  0  0  0  0  0  0  0  0  0  0
   28.6630   26.1980   11.1280 F   0  0  0  0  0  0  0  0  0  0  0  0
   24.0270   26.2540   18.0740 O   0  0  0  0  0  1  0  0  0  0  0  0
   23.7720   27.0080   17.0900 C   0  0  0  0  0  0  0  0  0  0  0  0
   22.6880   27.6060   16.8160 O   0  0  0  0  0  0  0  0  0  0  0  0
   24.9017   28.3369   15.8035 H   0  0  0  0  0  0  0  0  0  0  0  0
   24.4743   25.5061   12.6354 H   0  0  0  0  0  0  0  0  0  0  0  0
   26.1975   25.3762   10.8361 H   0  0  0  0  0  0  0  0  0  0  0  0
   29.0876   27.1422   13.5069 H   0  0  0  0  0  0  0  0  0  0  0  0
   26.3877   27.6402   17.6460 H   0  0  0  0  0  0  0  0  0  0  0  0
   26.3973   25.9664   16.9642 H   0  0  0  0  0  0  0  0  0  0  0  0
   31.2445   27.2949   16.4550 H   0  0  0  0  0  0  0  0  0  0  0  0
   30.3964   27.3364   14.8199 H   0  0  0  0  0  0  0  0  0  0  0  0
   30.0380   29.3925   16.9951 H   0  0  0  0  0  0  0  0  0  0  0  0
   31.1807   29.5178   15.5797 H   0  0  0  0  0  0  0  0  0  0  0  0
   29.2403   30.7378   15.0011 H   0  0  0  0  0  0  0  0  0  0  0  0
   29.1966   29.1660   14.0954 H   0  0  0  0  0  0  0  0  0  0  0  0
  2  1  1  0
  3  2  1  0
  4  3  1  0
  5  4  2  0
  6  5  1  0
  7  6  2  0
  8  3  2  0
  8  7  1  0
  9  8  1  0
 10  1  1  0
 10  9  1  0
 11  9  1  0
 12 11  1  0
 13 12  1  0
 14 13  1  0
 15 14  1  0
 15  9  1  0
 16  6  1  0
 18 17  1  0
 18  1  1  0
 19 18  2  0
  1 20  1  6
  4 21  1  0
  5 22  1  0
  7 23  1  0
 10 24  1  0
 10 25  1  0
 12 26  1  0
 12 27  1  0
 13 28  1  0
 13 29  1  0
 14 30  1  0
 14 31  1  0
M  CHG  1  17  -1
M  END
$$$$
=
     RDKit          3D

 44 45  0  0  0  0  0  0  0  0999 V2000
   15.0420   14.8890    4.6220 C   0  0  0  0  0  0  0  0  0  0  0  0
   15.3270   15.3000    5.9280 C   0  0  0  0  0  0  0  0  0  0  0  0
   16.5730   15.8420    6.2530 C   0  0  0  0  0  0  0  0  0  0  0  0
   17.5610   15.9760    5.2700 C   0  0  0  0  0  0  0  0  0  0  0  0
   17.2780   15.5510    3.9640 C   0  0  0  0  0  0  0  0  0  0  0  0
   16.0300   15.0100    3.6460 C   0  0  0  0  0  0  0  0  0  0  0  0
   14.0680   12.1910    3.8240 O   0  0  0  0  0  0  0  0  0  0  0  0
   13.3580   13.1920    3.8810 C   0  0  0  0  0  0  0  0  0  0  0  0
   13.7380   14.4290    4.3710 N   0  0  0  0  0  0  0  0  0  0  0  0
   11.9130   13.1710    3.4040 C   0  0  0  0  0  0  0  0  0  0  0  0
   11.0390   14.2510    4.0500 C   0  0  0  0  0  0  0  0  0  0  0  0
    9.9200   13.6910    4.9270 C   0  0  0  0  0  0  0  0  0  0  0  0
   10.1250   13.7270    6.4400 C   0  0  0  0  0  0  0  0  0  0  0  0
   11.2020   13.2420    6.8730 O   0  0  0  0  0  0  0  0  0  0  0  0
    9.1510   14.2440    7.0620 O   0  0  0  0  0  1  0  0  0  0  0  0
   18.9030   16.5580    5.6090 C   0  0  0  0  0  0  0  0  0  0  0  0
   19.9570   16.2350    4.5750 N   0  0  0  0  0  4  0  0  0  0  0  0
   21.1950   15.5350    5.1240 C   0  0  0  0  0  0  0  0  0  0  0  0
   22.1070   16.5330    5.8460 C   0  0  0  0  0  0  0  0  0  0  0  0
   22.4630   17.6200    4.9830 O   0  0  0  0  0  0  0  0  0  0  0  0
   21.3130   18.3460    4.5300 C   0  0  0  0  0  0  0  0  0  0  0  0
   20.3660   17.4360    3.7400 C   0  0  0  0  0  0  0  0  0  0  0  0
   14.5601   15.1952    6.7096 H   0  0  0  0  0  0  0  0  0  0  0  0
   16.7785   16.1645    7.2844 H   0  0  0  0  0  0  0  0  0  0  0  0
   18.0462   15.6445    3.1823 H   0  0  0  0  0  0  0  0  0  0  0  0
   15.8253   14.6770    2.6178 H   0  0  0  0  0  0  0  0  0  0  0  0
   12.9755   15.0904    4.5759 H   0  0  0  0  0  0  0  0  0  0  0  0
   11.9041   13.3219    2.3144 H   0  0  0  0  0  0  0  0  0  0  0  0
   11.4911   12.1976    3.6946 H   0  0  0  0  0  0  0  0  0  0  0  0
   11.6812   14.8911    4.6728 H   0  0  0  0  0  0  0  0  0  0  0  0
   10.5587   14.8081    3.2321 H   0  0  0  0  0  0  0  0  0  0  0  0
    9.0083   14.2648    4.7043 H   0  0  0  0  0  0  0  0  0  0  0  0
    9.8757   12.6210    4.6756 H   0  0  0  0  0  0  0  0  0  0  0  0
   18.8044   17.6512    5.6813 H   0  0  0  0  0  0  0  0  0  0  0  0
   19.2261   16.1147    6.5624 H   0  0  0  0  0  0  0  0  0  0  0  0
   19.4806   15.5585    3.9615 H   0  0  0  0  0  0  0  0  0  0  0  0
   20.8834   14.7531    5.8322 H   0  0  0  0  0  0  0  0  0  0  0  0
   21.7511   15.0910    4.2852 H   0  0  0  0  0  0  0  0  0  0  0  0
   21.5802   16.9301    6.7262 H   0  0  0  0  0  0  0  0  0  0  0  0
   23.0264   16.0112    6.1502 H   0  0  0  0  0  0  0  0  0  0  0  0
   20.7781   18.7526    5.4009 H   0  0  0  0  0  0  0  0  0  0  0  0
   21.6492   19.1595    3.8704 H   0  0  0  0  0  0  0  0  0  0  0  0
   20.8759   17.0867    2.8301 H   0  0  0  0  0  0  0  0  0  0  0  0
   19.4640   18.0074    3.4757 H   0  0  0  0  0  0  0  0  0  0  0  0
  2  1  2  0
  3  2  1  0
  4  3  2  0
  5  4  1  0
  6  1  1  0
  6  5  2  0
  8  7  2  0
  9  8  1  0
  9  1  1  0
 10  8  1  0
 11 10  1  0
 12 11  1  0
 13 12  1  0
 14 13  2  0
 15 13  1  0
 16  4  1  0
 17 16  1  0
 18 17  1  0
 19 18  1  0
 20 19  1  0
 21 20  1  0
 22 17  1  0
 22 21  1  0
  2 23  1  0
  3 24  1  0
  5 25  1  0
  6 26  1  0
  9 27  1  0
 10 28  1  0
 10 29  1  0
 11 30  1  0
 11 31  1  0
 12 32  1  0
 12 33  1  0
 16 34  1  0
 16 35  1  0
 17 36  1  0
 18 37  1  0
 18 38  1  0
 19 39  1  0
 19 40  1  0
 21 41  1  0
 21 42  1  0
 22 43  1  0
 22 44  1  0
M  CHG  2  15  -1  17   1
M  END
$$$$
=
     RDKit          3D

 29 30  0  0  0  0  0  0  0  0999 V2000
   19.3540   17.7480    3.6850 C   0  0  2  0  0  0  0  0  0  0  0  0
   19.6540   18.6970    4.7410 O   0  0  0  0  0  0  0  0  0  0  0  0
   20.8980   18.3960    5.3500 C   0  0  0  0  0  0  0  0  0  0  0  0
   21.0990   16.9630    5.8570 C   0  0  0  0  0  0  0  0  0  0  0  0
   21.9020   16.7240    6.7640 O   0  0  0  0  0  0  0  0  0  0  0  0
   20.3470   15.9780    5.2370 N   0  0  0  0  0  0  0  0  0  0  0  0
   19.3370   16.2960    4.2020 C   0  0  1  0  0  0  0  0  0  0  0  0
   20.5800   14.5830    5.5520 C   0  0  0  0  0  0  0  0  0  0  0  0
   17.9370   15.9380    4.7190 C   0  0  0  0  0  0  0  0  0  0  0  0
   16.9960   15.3550    3.8550 C   0  0  0  0  0  0  0  0  0  0  0  0
   15.7190   15.0240    4.3140 C   0  0  0  0  0  0  0  0  0  0  0  0
   15.3670   15.2700    5.6390 C   0  0  0  0  0  0  0  0  0  0  0  0
   16.2890   15.8520    6.5070 C   0  0  0  0  0  0  0  0  0  0  0  0
   17.5660   16.1850    6.0510 C   0  0  0  0  0  0  0  0  0  0  0  0
   21.4710   18.3210    2.7160 O   0  0  0  0  0  1  0  0  0  0  0  0
   20.3090   17.8840    2.4700 C   0  0  0  0  0  0  0  0  0  0  0  0
   19.8230   17.5230    1.3580 O   0  0  0  0  0  0  0  0  0  0  0  0
   18.3414   17.9981    3.3356 H   0  0  0  0  0  0  0  0  0  0  0  0
   21.6867   18.5996    4.6107 H   0  0  0  0  0  0  0  0  0  0  0  0
   20.9326   19.0245    6.2521 H   0  0  0  0  0  0  0  0  0  0  0  0
   19.6094   15.6818    3.3311 H   0  0  0  0  0  0  0  0  0  0  0  0
   20.6018   14.4524    6.6440 H   0  0  0  0  0  0  0  0  0  0  0  0
   19.7717   13.9708    5.1256 H   0  0  0  0  0  0  0  0  0  0  0  0
   21.5434   14.2668    5.1256 H   0  0  0  0  0  0  0  0  0  0  0  0
   17.2670   15.1572    2.8074 H   0  0  0  0  0  0  0  0  0  0  0  0
   14.9900   14.5682    3.6278 H   0  0  0  0  0  0  0  0  0  0  0  0
   14.3622   15.0052    6.0000 H   0  0  0  0  0  0  0  0  0  0  0  0
   16.0103   16.0493    7.5527 H   0  0  0  0  0  0  0  0  0  0  0  0
   18.2883   16.6451    6.7414 H   0  0  0  0  0  0  0  0  0  0  0  0
  2  1  1  0
  3  2  1  0
  4  3  1  0
  5  4  2  0
  6  4  1  0
  7  6  1  0
  7  1  1  0
  8  6  1  0
  9  7  1  0
 10  9  2  0
 11 10  1  0
 12 11  2  0
 13 12  1  0
 14 13  2  0
 14  9  1  0
 16 15  1  0
 16  1  1  0
 17 16  2  0
  1 18  1  6
  3 19  1  0
  3 20  1  0
  7 21  1  6
  8 22  1  0
  8 23  1  0
  8 24  1  0
 10 25  1  0
 11 26  1  0
 12 27  1  0
 13 28  1  0
 14 29  1  0
M  CHG  1  15  -1
M  END
$$$$
=
     RDKit          3D

 38 39  0  0  0  0  0  0  0  0999 V2000
   18.6230   16.7640    4.1950 C   0  0  2  0  0  0  0  0  0  0  0  0
   19.6070   16.3740    5.3300 N   0  0  0  0  0  4  0  0  0  0  0  0
   20.7970   17.3050    5.4200 C   0  0  0  0  0  0  0  0  0  0  0  0
   21.9280   16.6470    6.2240 C   0  0  0  0  0  0  0  0  0  0  0  0
   21.4000   15.8230    7.2690 O   0  0  0  0  0  0  0  0  0  0  0  0
   20.6910   14.6780    6.7620 C   0  0  0  0  0  0  0  0  0  0  0  0
   19.9980   14.9220    5.4100 C   0  0  0  0  0  0  0  0  0  0  0  0
   16.6470   16.6730    5.5520 O   0  0  0  0  0  0  0  0  0  0  0  0
   17.2060   16.2150    4.5490 C   0  0  0  0  0  0  0  0  0  0  0  0
   16.6890   15.2940    3.6720 N   0  0  0  0  0  0  0  0  0  0  0  0
   15.4440   14.6380    3.7270 C   0  0  0  0  0  0  0  0  0  0  0  0
   14.2750   15.2100    4.2300 C   0  0  0  0  0  0  0  0  0  0  0  0
   13.0820   14.4800    4.2460 C   0  0  0  0  0  0  0  0  0  0  0  0
   13.0500   13.1740    3.7600 C   0  0  0  0  0  0  0  0  0  0  0  0
   14.2110   12.5950    3.2570 C   0  0  0  0  0  0  0  0  0  0  0  0
   15.4020   13.3250    3.2400 C   0  0  0  0  0  0  0  0  0  0  0  0
   19.1730   16.2620    2.8710 C   0  0  0  0  0  0  0  0  0  0  0  0
   19.5410   17.6090    2.3020 C   0  0  0  0  0  0  0  0  0  0  0  0
   20.2030   17.5520    1.2370 O   0  0  0  0  0  0  0  0  0  0  0  0
   19.2400   18.5760    3.0530 O   0  0  0  0  0  1  0  0  0  0  0  0
   18.5203   17.8545    4.0938 H   0  0  0  0  0  0  0  0  0  0  0  0
   19.0412   16.5084    6.1801 H   0  0  0  0  0  0  0  0  0  0  0  0
   21.1574   17.5326    4.4059 H   0  0  0  0  0  0  0  0  0  0  0  0
   20.4893   18.2315    5.9270 H   0  0  0  0  0  0  0  0  0  0  0  0
   22.5360   16.0269    5.5489 H   0  0  0  0  0  0  0  0  0  0  0  0
   22.5430   17.4383    6.6774 H   0  0  0  0  0  0  0  0  0  0  0  0
   21.4081   13.8529    6.6397 H   0  0  0  0  0  0  0  0  0  0  0  0
   19.8992   14.4451    7.4892 H   0  0  0  0  0  0  0  0  0  0  0  0
   20.6886   14.6777    4.5894 H   0  0  0  0  0  0  0  0  0  0  0  0
   19.1051   14.2854    5.3233 H   0  0  0  0  0  0  0  0  0  0  0  0
   17.2889   15.0516    2.8706 H   0  0  0  0  0  0  0  0  0  0  0  0
   14.2917   16.2400    4.6158 H   0  0  0  0  0  0  0  0  0  0  0  0
   12.1648   14.9387    4.6440 H   0  0  0  0  0  0  0  0  0  0  0  0
   12.1100   12.6029    3.7741 H   0  0  0  0  0  0  0  0  0  0  0  0
   14.1911   11.5642    2.8734 H   0  0  0  0  0  0  0  0  0  0  0  0
   16.3170   12.8638    2.8398 H   0  0  0  0  0  0  0  0  0  0  0  0
   20.0470   15.6066    2.9998 H   0  0  0  0  0  0  0  0  0  0  0  0
   18.5008   15.6381    2.2636 H   0  0  0  0  0  0  0  0  0  0  0  0
  2  1  1  0
  3  2  1  0
  4  3  1  0
  5  4  1  0
  6  5  1  0
  7  6  1  0
  7  2  1  0
  9  1  1  0
  9  8  2  0
 10  9  1  0
 11 10  1  0
 12 11  2  0
 13 12  1  0
 14 13  2  0
 15 14  1  0
 16 15  2  0
 16 11  1  0
 17  1  1  0
 18 17  1  0
 19 18  2  0
 20 18  1  0
  1 21  1  6
  2 22  1  0
  3 23  1  0
  3 24  1  0
  4 25  1  0
  4 26  1  0
  6 27  1  0
  6 28  1  0
  7 29  1  0
  7 30  1  0
 10 31  1  0
 12 32  1  0
 13 33  1  0
 14 34  1  0
 15 35  1  0
 16 36  1  0
 17 37  1  0
 17 38  1  0
M  CHG  2   2   1  20  -1
M  END
$$$$
=
     RDKit          3D

 39 41  0  0  0  0  0  0  0  0999 V2000
   16.2130   15.4660    4.9150 C   0  0  0  0  0  0  0  0  0  0  0  0
   15.4390   15.2880    6.0400 C   0  0  0  0  0  0  0  0  0  0  0  0
   14.3470   14.4770    5.6500 C   0  0  0  0  0  0  0  0  0  0  0  0
   14.4700   14.2070    4.2940 C   0  0  0  0  0  0  0  0  0  0  0  0
   15.6410   14.8010    3.8700 O   0  0  0  0  0  0  0  0  0  0  0  0
   13.6810   13.4220    3.4110 C   0  0  0  0  0  0  0  0  0  0  0  0
   12.3430   13.3770    3.3590 C   0  0  0  0  0  0  0  0  0  0  0  0
   11.5290   12.2800    2.2910 S   0  0  0  0  0  0  0  0  0  0  0  0
    9.9480   12.6300    2.9820 C   0  0  0  0  0  0  0  0  0  0  0  0
    8.5810   11.8060    2.4860 S   0  0  0  0  0  0  0  0  0  0  0  0
   10.0560   13.6670    3.8780 N   0  0  0  0  0  0  0  0  0  0  0  0
   11.3250   14.1690    4.1130 C   0  0  0  0  0  0  0  0  0  0  0  0
   11.5870   15.1680    4.7710 O   0  0  0  0  0  0  0  0  0  0  0  0
    8.9770   14.0810    4.7900 C   0  0  0  0  0  0  0  0  0  0  0  0
    8.8560   13.1790    6.0390 C   0  0  0  0  0  0  0  0  0  0  0  0
    7.9410   12.3080    5.9760 O   0  0  0  0  0  0  0  0  0  0  0  0
    9.6830   13.4120    6.9690 O   0  0  0  0  0  1  0  0  0  0  0  0
   19.8680   17.5470    4.0650 C   0  0  0  0  0  0  0  0  0  0  0  0
   19.0810   17.9220    5.1590 C   0  0  0  0  0  0  0  0  0  0  0  0
   17.8890   17.2410    5.4350 C   0  0  0  0  0  0  0  0  0  0  0  0
   17.4570   16.1770    4.6290 C   0  0  0  0  0  0  0  0  0  0  0  0
   18.2540   15.8100    3.5350 C   0  0  0  0  0  0  0  0  0  0  0  0
   19.4480   16.4870    3.2540 C   0  0  0  0  0  0  0  0  0  0  0  0
   21.1440   18.2340    3.7230 C   0  0  0  0  0  0  0  0  0  0  0  0
   21.5950   18.2970    2.5890 O   0  0  0  0  0  0  0  0  0  0  0  0
   22.9360   18.1370    5.2160 C   0  0  0  0  0  0  0  0  0  0  0  0
   21.7150   18.7680    4.8320 O   0  0  0  0  0  0  0  0  0  0  0  0
   15.6316   15.6956    7.0434 H   0  0  0  0  0  0  0  0  0  0  0  0
   13.5400   14.1219    6.3078 H   0  0  0  0  0  0  0  0  0  0  0  0
   14.2244   12.7859    2.6968 H   0  0  0  0  0  0  0  0  0  0  0  0
    9.1748   15.1113    5.1207 H   0  0  0  0  0  0  0  0  0  0  0  0
    8.0307   13.9996    4.2351 H   0  0  0  0  0  0  0  0  0  0  0  0
   19.3994   18.7541    5.8042 H   0  0  0  0  0  0  0  0  0  0  0  0
   17.2805   17.5457    6.2992 H   0  0  0  0  0  0  0  0  0  0  0  0
   17.9371   14.9786    2.8882 H   0  0  0  0  0  0  0  0  0  0  0  0
   20.0587   16.1835    2.3909 H   0  0  0  0  0  0  0  0  0  0  0  0
   23.0018   18.1030    6.3135 H   0  0  0  0  0  0  0  0  0  0  0  0
   22.9613   17.1129    4.8152 H   0  0  0  0  0  0  0  0  0  0  0  0
   23.7860   18.7087    4.8152 H   0  0  0  0  0  0  0  0  0  0  0  0
  2  1  2  0
  3  2  1  0
  4  3  2  0
  5  4  1  0
  5  1  1  0
  6  4  1  0
  7  6  2  0
  8  7  1  0
  9  8  1  0
 10  9  2  0
 11  9  1  0
 12 11  1  0
 12  7  1  0
 13 12  2  0
 14 11  1  0
 15 14  1  0
 16 15  2  0
 17 15  1  0
 19 18  2  0
 20 19  1  0
 21  1  1  0
 21 20  2  0
 22 21  1  0
 23 22  2  0
 23 18  1  0
 24 18  1  0
 25 24  2  0
 27 24  1  0
 27 26  1  0
  2 28  1  0
  3 29  1  0
  6 30  1  0
 14 31  1  0
 14 32  1  0
 19 33  1  0
 20 34  1  0
 22 35  1  0
 23 36  1  0
 26 37  1  0
 26 38  1  0
 26 39  1  0
M  CHG  1  17  -1
M  END
$$$$
=
     RDKit          3D

 34 35  0  0  0  0  0  0  0  0999 V2000
   18.3650   15.9180    5.0680 C   0  0  2  0  0  0  0  0  0  0  0  0
   16.9980   15.3300    4.7150 C   0  0  0  0  0  0  0  0  0  0  0  0
   15.8470   15.5810    5.4780 C   0  0  0  0  0  0  0  0  0  0  0  0
   14.6160   15.0320    5.1120 C   0  0  0  0  0  0  0  0  0  0  0  0
   14.5190   14.2130    3.9890 C   0  0  0  0  0  0  0  0  0  0  0  0
   15.6560   13.9350    3.2350 C   0  0  0  0  0  0  0  0  0  0  0  0
   16.8860   14.4870    3.5980 C   0  0  0  0  0  0  0  0  0  0  0  0
   19.0020   15.1680    6.2450 C   0  0  0  0  0  0  0  0  0  0  0  0
   21.0650   15.3070    7.3650 O   0  0  0  0  0  1  0  0  0  0  0  0
   20.5300   15.1530    6.2300 C   0  0  0  0  0  0  0  0  0  0  0  0
   21.0770   15.0350    5.0980 O   0  0  0  0  0  0  0  0  0  0  0  0
   18.3110   17.4310    5.3720 C   0  0  0  0  0  0  0  0  0  0  0  0
   19.6310   18.0350    5.4260 N   0  0  0  0  0  0  0  0  0  0  0  0
   20.3770   18.2640    4.3030 C   0  0  0  0  0  0  0  0  0  0  0  0
   20.0230   18.0530    3.1530 O   0  0  0  0  0  0  0  0  0  0  0  0
   21.7440   18.7730    4.5860 C   0  0  0  0  0  0  0  0  0  0  0  0
   22.9590   17.8840    4.4460 C   0  0  0  0  0  0  0  0  0  0  0  0
   22.4830   18.2850    5.8110 C   0  0  0  0  0  0  0  0  0  0  0  0
   18.9916   15.7881    4.1733 H   0  0  0  0  0  0  0  0  0  0  0  0
   15.9151   16.2165    6.3733 H   0  0  0  0  0  0  0  0  0  0  0  0
   13.7198   15.2470    5.7125 H   0  0  0  0  0  0  0  0  0  0  0  0
   13.5471   13.7873    3.6990 H   0  0  0  0  0  0  0  0  0  0  0  0
   15.5852   13.2807    2.3536 H   0  0  0  0  0  0  0  0  0  0  0  0
   17.7804   14.2580    3.0000 H   0  0  0  0  0  0  0  0  0  0  0  0
   18.6716   15.6477    7.1781 H   0  0  0  0  0  0  0  0  0  0  0  0
   18.6765   14.1204    6.1634 H   0  0  0  0  0  0  0  0  0  0  0  0
   17.7273   17.9286    4.5835 H   0  0  0  0  0  0  0  0  0  0  0  0
   17.8451   17.5569    6.3605 H   0  0  0  0  0  0  0  0  0  0  0  0
   20.0188   18.3002    6.3426 H   0  0  0  0  0  0  0  0  0  0  0  0
   21.4534   19.7509    4.1746 H   0  0  0  0  0  0  0  0  0  0  0  0
   22.8426   16.8440    4.1072 H   0  0  0  0  0  0  0  0  0  0  0  0
   23.9143   17.9543    3.9052 H   0  0  0  0  0  0  0  0  0  0  0  0
   23.0739   18.9907    6.4134 H   0  0  0  0  0  0  0  0  0  0  0  0
   22.1983   17.7421    6.7243 H   0  0  0  0  0  0  0  0  0  0  0  0
  2  1  1  0
  3  2  2  0
  4  3  1  0
  5  4  2  0
  6  5  1  0
  7  6  2  0
  7  2  1  0
  8  1  1  0
 10  9  1  0
 10  8  1  0
 11 10  2  0
 12  1  1  0
 13 12  1  0
 14 13  1  0
 15 14  2  0
 16 14  1  0
 17 16  1  0
 18 16  1  0
 18 17  1  0
  1 19  1  6
  3 20  1  0
  4 21  1  0
  5 22  1  0
  6 23  1  0
  7 24  1  0
  8 25  1  0
  8 26  1  0
 12 27  1  0
 12 28  1  0
 13 29  1  0
 16 30  1  0
 17 31  1  0
 17 32  1  0
 18 33  1  0
 18 34  1  0
M  CHG  1   9  -1
M  END
$$$$
=
     RDKit          3D

 17 16  0  0  0  0  0  0  0  0999 V2000
   21.4900   16.2880    5.7370 C   0  0  2  0  0  0  0  0  0  0  0  0
   21.8090   17.8200    5.8100 C   0  0  0  0  0  0  0  0  0  0  0  0
   23.0410   18.0590    6.0240 O   0  0  0  0  0  0  0  0  0  0  0  0
   20.8470   18.6140    5.6350 O   0  0  0  0  0  1  0  0  0  0  0  0
   20.0320   15.8910    5.4750 C   0  0  0  0  0  0  0  0  0  0  0  0
   19.7890   15.5070    4.0120 C   0  0  0  0  0  0  0  0  0  0  0  0
   19.5440   14.7800    6.4040 C   0  0  0  0  0  0  0  0  0  0  0  0
   21.9060   15.6700    6.9900 O   0  0  0  0  0  0  0  0  0  0  0  0
   22.0438   15.9340    4.8550 H   0  0  0  0  0  0  0  0  0  0  0  0
   19.4398   16.7913    5.6958 H   0  0  0  0  0  0  0  0  0  0  0  0
   19.2012   14.5782    3.9695 H   0  0  0  0  0  0  0  0  0  0  0  0
   19.2367   16.3138    3.5080 H   0  0  0  0  0  0  0  0  0  0  0  0
   20.7546   15.3533    3.5080 H   0  0  0  0  0  0  0  0  0  0  0  0
   19.6805   15.0907    7.4504 H   0  0  0  0  0  0  0  0  0  0  0  0
   18.4778   14.5860    6.2152 H   0  0  0  0  0  0  0  0  0  0  0  0
   20.1225   13.8636    6.2152 H   0  0  0  0  0  0  0  0  0  0  0  0
   21.5522   16.1957    7.7507 H   0  0  0  0  0  0  0  0  0  0  0  0
  2  1  1  0
  3  2  2  0
  4  2  1  0
  5  1  1  0
  6  5  1  0
  7  5  1  0
  8  1  1  0
  1  9  1  6
  5 10  1  0
  6 11  1  0
  6 12  1  0
  6 13  1  0
  7 14  1  0
  7 15  1  0
  7 16  1  0
  8 17  1  0
M  CHG  1   4  -1
M  END
$$$$
=
     RDKit          3D

 50 52  0  0  0  0  0  0  0  0999 V2000
    9.6370   14.2070    6.6650 C   0  0  0  0  0  0  0  0  0  0  0  0
   10.2470   13.7990    5.3580 C   0  0  0  0  0  0  0  0  0  0  0  0
    9.4110   13.3890    4.3840 N   0  0  0  0  0  0  0  0  0  0  0  0
    9.9700   13.0430    3.2120 C   0  0  0  0  0  0  0  0  0  0  0  0
   11.2920   13.0570    2.9650 N   0  0  0  0  0  0  0  0  0  0  0  0
   12.1180   13.4550    3.9610 C   0  0  0  0  0  0  0  0  0  0  0  0
   11.6160   13.8490    5.1880 C   0  0  0  0  0  0  0  0  0  0  0  0
    9.0840   12.5320    2.1180 C   0  0  1  0  0  0  0  0  0  0  0  0
    9.6980   11.3750    1.3330 C   0  0  0  0  0  0  0  0  0  0  0  0
    8.4890   10.7880    0.6200 C   0  0  0  0  0  0  0  0  0  0  0  0
    7.3770   10.9890    1.5380 N   0  0  0  0  0  0  0  0  0  0  0  0
    7.7570   11.9400    2.5850 C   0  0  0  0  0  0  0  0  0  0  0  0
    6.0920   10.4930    1.5020 C   0  0  0  0  0  0  0  0  0  0  0  0
    5.2790   10.8590    2.3590 O   0  0  0  0  0  0  0  0  0  0  0  0
    5.6680    9.4420    0.4420 C   0  0  0  0  0  0  0  0  0  0  0  0
    5.7270    9.9810   -0.9940 C   0  0  0  0  0  0  0  0  0  0  0  0
    4.1940    9.0550    0.7180 C   0  0  0  0  0  0  0  0  0  0  0  0
    6.5080    8.1670    0.5910 C   0  0  0  0  0  0  0  0  0  0  0  0
   13.5600   13.4410    3.6450 C   0  0  0  0  0  0  0  0  0  0  0  0
   14.1360   12.4140    2.8920 C   0  0  0  0  0  0  0  0  0  0  0  0
   15.4450   12.3270    2.5450 N   0  0  0  0  0  0  0  0  0  0  0  0
   16.2500   13.3280    2.9810 C   0  0  0  0  0  0  0  0  0  0  0  0
   15.8130   14.4010    3.7420 C   0  0  0  0  0  0  0  0  0  0  0  0
   14.4480   14.4380    4.0740 C   0  0  0  0  0  0  0  0  0  0  0  0
   16.7620   15.4740    4.1890 C   0  0  0  0  0  0  0  0  0  0  0  0
   17.9260   15.4670    3.6830 O   0  0  0  0  0  0  0  0  0  0  0  0
   16.3210   16.3100    5.0400 O   0  0  0  0  0  1  0  0  0  0  0  0
   10.2394   13.8041    7.4925 H   0  0  0  0  0  0  0  0  0  0  0  0
    9.6113   15.3047    6.7308 H   0  0  0  0  0  0  0  0  0  0  0  0
    8.6126   13.8116    6.7308 H   0  0  0  0  0  0  0  0  0  0  0  0
   12.2808   14.1885    5.9959 H   0  0  0  0  0  0  0  0  0  0  0  0
    8.9427   13.4469    1.5238 H   0  0  0  0  0  0  0  0  0  0  0  0
   10.4482   11.7355    0.6138 H   0  0  0  0  0  0  0  0  0  0  0  0
   10.2320   10.6493    1.9641 H   0  0  0  0  0  0  0  0  0  0  0  0
    8.3069   11.3134   -0.3291 H   0  0  0  0  0  0  0  0  0  0  0  0
    8.6317    9.7265    0.3695 H   0  0  0  0  0  0  0  0  0  0  0  0
    6.9963   12.7281    2.6861 H   0  0  0  0  0  0  0  0  0  0  0  0
    7.8435   11.4576    3.5698 H   0  0  0  0  0  0  0  0  0  0  0  0
    5.8467   11.0742   -0.9707 H   0  0  0  0  0  0  0  0  0  0  0  0
    6.5811    9.5298   -1.5202 H   0  0  0  0  0  0  0  0  0  0  0  0
    4.7955    9.7252   -1.5202 H   0  0  0  0  0  0  0  0  0  0  0  0
    4.0238    9.0103    1.8038 H   0  0  0  0  0  0  0  0  0  0  0  0
    3.5276    9.8086    0.2731 H   0  0  0  0  0  0  0  0  0  0  0  0
    3.9837    8.0712    0.2731 H   0  0  0  0  0  0  0  0  0  0  0  0
    6.6534    7.9464    1.6588 H   0  0  0  0  0  0  0  0  0  0  0  0
    5.9865    7.3261    0.1105 H   0  0  0  0  0  0  0  0  0  0  0  0
    7.4865    8.3143    0.1105 H   0  0  0  0  0  0  0  0  0  0  0  0
   13.4710   11.6067    2.5513 H   0  0  0  0  0  0  0  0  0  0  0  0
   17.3162   13.2856    2.7140 H   0  0  0  0  0  0  0  0  0  0  0  0
   14.0668   15.2693    4.6853 H   0  0  0  0  0  0  0  0  0  0  0  0
  2  1  1  0
  3  2  2  0
  4  3  1  0
  5  4  2  0
  6  5  1  0
  7  2  1  0
  7  6  2  0
  8  4  1  0
  9  8  1  0
 10  9  1  0
 11 10  1  0
 12 11  1  0
 12  8  1  0
 13 11  1  0
 14 13  2  0
 15 13  1  0
 16 15  1  0
 17 15  1  0
 18 15  1  0
 19  6  1  0
 20 19  2  0
 21 20  1  0
 22 21  2  0
 23 22  1  0
 24 23  2  0
 24 19  1  0
 25 23  1  0
 26 25  2  0
 27 25  1  0
  1 28  1  0
  1 29  1  0
  1 30  1  0
  7 31  1  0
  8 32  1  6
  9 33  1  0
  9 34  1  0
 10 35  1  0
 10 36  1  0
 12 37  1  0
 12 38  1  0
 16 39  1  0
 16 40  1  0
 16 41  1  0
 17 42  1  0
 17 43  1  0
 17 44  1  0
 18 45  1  0
 18 46  1  0
 18 47  1  0
 20 48  1  0
 22 49  1  0
 24 50  1  0
M  CHG  1  27  -1
M  END
$$$$
=
     RDKit          3D

 25 27  0  0  0  0  0  0  0  0999 V2000
   14.6090   13.3960    3.5850 C   0  0  0  0  0  0  0  0  0  0  0  0
   15.1820   12.3150    2.9000 C   0  0  0  0  0  0  0  0  0  0  0  0
   16.5000   12.4490    2.7280 N   0  0  0  0  0  0  0  0  0  0  0  0
   16.7790   13.6460    3.3040 N   0  0  0  0  0  0  0  0  0  0  0  0
   15.6470   14.2600    3.8540 C   0  0  0  0  0  0  0  0  0  0  0  0
   15.7410   15.4650    4.4960 N   0  0  0  0  0  0  0  0  0  0  0  0
   16.9230   15.9950    4.5590 C   0  0  0  0  0  0  0  0  0  0  0  0
   18.1930   15.4360    3.9890 C   0  0  0  0  0  0  0  0  0  0  0  0
   18.0320   14.2450    3.3870 C   0  0  0  0  0  0  0  0  0  0  0  0
   19.4220   16.1450    4.1790 C   0  0  0  0  0  0  0  0  0  0  0  0
   19.8640   17.0410    3.2750 N   0  0  0  0  0  0  0  0  0  0  0  0
   20.9880   17.5440    3.7970 N   0  0  0  0  0  0  0  0  0  0  0  0
   21.3170   16.9990    4.9970 C   0  0  0  0  0  0  0  0  0  0  0  0
   20.3300   16.0700    5.2730 C   0  0  0  0  0  0  0  0  0  0  0  0
   20.3170   15.2300    6.4310 N   0  0  0  0  0  4  0  0  0  0  0  0
   19.4860   14.3170    6.4660 O   0  0  0  0  0  0  0  0  0  0  0  0
   21.1650   15.4710    7.3020 O   0  0  0  0  0  1  0  0  0  0  0  0
   12.3110   13.1210    2.9810 O   0  0  0  0  0  1  0  0  0  0  0  0
   13.0920   13.4780    3.9190 C   0  0  0  0  0  0  0  0  0  0  0  0
   12.7430   13.8850    5.0670 O   0  0  0  0  0  0  0  0  0  0  0  0
   14.6070   11.4482    2.5421 H   0  0  0  0  0  0  0  0  0  0  0  0
   17.0028   16.9569    5.0866 H   0  0  0  0  0  0  0  0  0  0  0  0
   18.9050   13.7357    2.9529 H   0  0  0  0  0  0  0  0  0  0  0  0
   21.5492   18.2733    3.3343 H   0  0  0  0  0  0  0  0  0  0  0  0
   22.1888   17.2457    5.6208 H   0  0  0  0  0  0  0  0  0  0  0  0
  2  1  1  0
  3  2  2  0
  4  3  1  0
  5  1  2  0
  5  4  1  0
  6  5  1  0
  7  6  2  0
  8  7  1  0
  9  8  2  0
  9  4  1  0
 10  8  1  0
 11 10  2  0
 12 11  1  0
 13 12  1  0
 14 10  1  0
 14 13  2  0
 15 14  1  0
 16 15  2  0
 17 15  1  0
 19 18  1  0
 19  1  1  0
 20 19  2  0
  2 21  1  0
  7 22  1  0
  9 23  1  0
 12 24  1  0
 13 25  1  0
M  CHG  3  15   1  17  -1  18  -1
M  END
$$$$
=
     RDKit          3D

 33 33  0  0  0  0  0  0  0  0999 V2000
   18.7910   16.6410    3.9850 N   0  0  0  0  0  0  0  0  0  0  0  0
   18.4520   15.3320    3.7750 C   0  0  0  0  0  0  0  0  0  0  0  0
   19.2480   14.4570    3.4450 O   0  0  0  0  0  0  0  0  0  0  0  0
   17.0100   14.9910    3.9560 C   0  0  0  0  0  0  0  0  0  0  0  0
   16.2370   15.7970    4.8030 C   0  0  0  0  0  0  0  0  0  0  0  0
   14.8820   15.5250    4.9940 C   0  0  0  0  0  0  0  0  0  0  0  0
   14.2870   14.4470    4.3380 C   0  0  0  0  0  0  0  0  0  0  0  0
   15.0420   13.6280    3.4900 C   0  0  0  0  0  0  0  0  0  0  0  0
   16.4020   13.9170    3.2900 C   0  0  0  0  0  0  0  0  0  0  0  0
   14.3990   12.4920    2.7520 C   0  0  0  0  0  0  0  0  0  0  0  0
   20.1270   17.2340    3.7280 C   0  0  2  0  0  0  0  0  0  0  0  0
   21.6710   17.9070    5.6560 C   0  0  0  0  0  0  0  0  0  0  0  0
   20.4600   18.2930    4.8020 C   0  0  0  0  0  0  0  0  0  0  0  0
   19.2630   18.6180    5.7000 C   0  0  0  0  0  0  0  0  0  0  0  0
   20.1940   17.7750    2.2500 C   0  0  0  0  0  0  0  0  0  0  0  0
   19.1420   17.6830    1.5620 O   0  0  0  0  0  0  0  0  0  0  0  0
   21.3260   18.2710    1.9420 O   0  0  0  0  0  1  0  0  0  0  0  0
   18.0589   17.2660    4.3515 H   0  0  0  0  0  0  0  0  0  0  0  0
   16.7016   16.6493    5.3204 H   0  0  0  0  0  0  0  0  0  0  0  0
   14.2825   16.1608    5.6621 H   0  0  0  0  0  0  0  0  0  0  0  0
   13.2173   14.2391    4.4881 H   0  0  0  0  0  0  0  0  0  0  0  0
   16.9959   13.2948    2.6043 H   0  0  0  0  0  0  0  0  0  0  0  0
   13.9904   11.7700    3.4743 H   0  0  0  0  0  0  0  0  0  0  0  0
   13.5859   12.8787    2.1201 H   0  0  0  0  0  0  0  0  0  0  0  0
   15.1491   11.9939    2.1201 H   0  0  0  0  0  0  0  0  0  0  0  0
   20.9101   16.4662    3.8131 H   0  0  0  0  0  0  0  0  0  0  0  0
   21.4099   17.9902    6.7213 H   0  0  0  0  0  0  0  0  0  0  0  0
   21.9638   16.8710    5.4301 H   0  0  0  0  0  0  0  0  0  0  0  0
   22.5093   18.5825    5.4301 H   0  0  0  0  0  0  0  0  0  0  0  0
   20.7187   19.2022    4.2395 H   0  0  0  0  0  0  0  0  0  0  0  0
   19.5633   18.5365    6.7551 H   0  0  0  0  0  0  0  0  0  0  0  0
   18.9182   19.6423    5.4950 H   0  0  0  0  0  0  0  0  0  0  0  0
   18.4476   17.9087    5.4950 H   0  0  0  0  0  0  0  0  0  0  0  0
  2  1  1  0
  3  2  2  0
  4  2  1  0
  5  4  2  0
  6  5  1  0
  7  6  2  0
  8  7  1  0
  9  8  2  0
  9  4  1  0
 10  8  1  0
 11  1  1  0
 13 11  1  0
 13 12  1  0
 14 13  1  0
 15 11  1  0
 16 15  2  0
 17 15  1  0
  1 18  1  0
  5 19  1  0
  6 20  1  0
  7 21  1  0
  9 22  1  0
 10 23  1  0
 10 24  1  0
 10 25  1  0
 11 26  1  6
 12 27  1  0
 12 28  1  0
 12 29  1  0
 13 30  1  0
 14 31  1  0
 14 32  1  0
 14 33  1  0
M  CHG  1  17  -1
M  END
$$$$
=
     RDKit          3D

 26 26  0  0  0  0  0  0  0  0999 V2000
   15.8610   14.9640    3.4010 C   0  0  0  0  0  0  0  0  0  0  0  0
   16.7450   15.1880    4.6150 C   0  0  2  0  0  0  0  0  0  0  0  0
   16.3650   16.4390    5.4200 C   0  0  0  0  0  0  0  0  0  0  0  0
   17.6830   17.1150    5.8110 C   0  0  0  0  0  0  0  0  0  0  0  0
   18.7750   16.0880    5.4940 C   0  0  1  0  0  0  0  0  0  0  0  0
   18.2180   15.3890    4.2530 C   0  0  0  0  0  0  0  0  0  0  0  0
   20.1920   16.6720    5.3800 C   0  0  1  0  0  0  0  0  0  0  0  0
   20.1790   18.1960    5.5020 C   0  0  0  0  0  0  0  0  0  0  0  0
   21.2060   16.0840    6.3850 C   0  0  0  0  0  0  0  0  0  0  0  0
   22.2860   16.7220    6.5320 O   0  0  0  0  0  0  0  0  0  0  0  0
   20.8300   15.0120    6.9430 O   0  0  0  0  0  1  0  0  0  0  0  0
   14.8437   14.7062    3.7307 H   0  0  0  0  0  0  0  0  0  0  0  0
   15.8288   15.8824    2.7964 H   0  0  0  0  0  0  0  0  0  0  0  0
   16.2700   14.1411    2.7964 H   0  0  0  0  0  0  0  0  0  0  0  0
   16.5923   14.2709    5.2028 H   0  0  0  0  0  0  0  0  0  0  0  0
   15.7566   17.1179    4.8044 H   0  0  0  0  0  0  0  0  0  0  0  0
   15.7706   16.1779    6.3080 H   0  0  0  0  0  0  0  0  0  0  0  0
   17.8346   18.0322    5.2231 H   0  0  0  0  0  0  0  0  0  0  0  0
   17.6934   17.4102    6.8706 H   0  0  0  0  0  0  0  0  0  0  0  0
   18.9613   15.3746    6.3103 H   0  0  0  0  0  0  0  0  0  0  0  0
   18.7197   14.4252    4.0815 H   0  0  0  0  0  0  0  0  0  0  0  0
   18.3661   15.9614    3.3254 H   0  0  0  0  0  0  0  0  0  0  0  0
   20.5333   16.3778    4.3765 H   0  0  0  0  0  0  0  0  0  0  0  0
   20.1766   18.4787    6.5650 H   0  0  0  0  0  0  0  0  0  0  0  0
   21.0736   18.6105    5.0144 H   0  0  0  0  0  0  0  0  0  0  0  0
   19.2774   18.5952    5.0144 H   0  0  0  0  0  0  0  0  0  0  0  0
  2  1  1  0
  3  2  1  0
  4  3  1  0
  5  4  1  0
  6  2  1  0
  6  5  1  0
  7  5  1  0
  8  7  1  0
  9  7  1  0
 10  9  2  0
 11  9  1  0
  1 12  1  0
  1 13  1  0
  1 14  1  0
  2 15  1  1
  3 16  1  0
  3 17  1  0
  4 18  1  0
  4 19  1  0
  5 20  1  1
  6 21  1  0
  6 22  1  0
  7 23  1  6
  8 24  1  0
  8 25  1  0
  8 26  1  0
M  CHG  1  11  -1
M  END
$$$$
=
     RDKit          3D

 25 26  0  0  0  0  0  0  0  0999 V2000
   19.0740   15.6980    5.4770 C   0  0  0  0  0  0  0  0  0  0  0  0
   19.8200   14.9250    6.3540 C   0  0  0  0  0  0  0  0  0  0  0  0
   21.1130   15.4840    6.4470 C   0  0  0  0  0  0  0  0  0  0  0  0
   21.1370   16.5980    5.6350 C   0  0  0  0  0  0  0  0  0  0  0  0
   19.8880   16.7470    5.0780 N   0  0  0  0  0  0  0  0  0  0  0  0
   19.5050   17.8640    4.2410 C   0  0  0  0  0  0  0  0  0  0  0  0
   13.8000   14.8680    3.8310 F   0  0  0  0  0  0  0  0  0  0  0  0
   15.0650   15.0700    4.2240 C   0  0  0  0  0  0  0  0  0  0  0  0
   15.3140   15.6310    5.4720 C   0  0  0  0  0  0  0  0  0  0  0  0
   16.6320   15.8390    5.8810 C   0  0  0  0  0  0  0  0  0  0  0  0
   17.6960   15.4910    5.0390 C   0  0  0  0  0  0  0  0  0  0  0  0
   17.4270   14.9190    3.7880 C   0  0  0  0  0  0  0  0  0  0  0  0
   16.1090   14.7120    3.3780 C   0  0  0  0  0  0  0  0  0  0  0  0
   22.3930   17.5180    5.4090 C   0  0  0  0  0  0  0  0  0  0  0  0
   22.9860   17.9270    6.4510 O   0  0  0  0  0  0  0  0  0  0  0  0
   22.7040   17.7660    4.2050 O   0  0  0  0  0  1  0  0  0  0  0  0
   19.4651   14.0299    6.8859 H   0  0  0  0  0  0  0  0  0  0  0  0
   21.9466   15.1018    7.0545 H   0  0  0  0  0  0  0  0  0  0  0  0
   19.2135   18.7143    4.8751 H   0  0  0  0  0  0  0  0  0  0  0  0
   20.3548   18.1546    3.6059 H   0  0  0  0  0  0  0  0  0  0  0  0
   18.6556   17.5720    3.6059 H   0  0  0  0  0  0  0  0  0  0  0  0
   14.4786   15.9086    6.1316 H   0  0  0  0  0  0  0  0  0  0  0  0
   16.8362   16.2781    6.8687 H   0  0  0  0  0  0  0  0  0  0  0  0
   18.2579   14.6321    3.1267 H   0  0  0  0  0  0  0  0  0  0  0  0
   15.8978   14.2692    2.3935 H   0  0  0  0  0  0  0  0  0  0  0  0
  2  1  2  0
  3  2  1  0
  4  3  2  0
  5  1  1  0
  5  4  1  0
  6  5  1  0
  8  7  1  0
  9  8  2  0
 10  9  1  0
 11 10  2  0
 11  1  1  0
 12 11  1  0
 13  8  1  0
 13 12  2  0
 14  4  1  0
 15 14  2  0
 16 14  1  0
  2 17  1  0
  3 18  1  0
  6 19  1  0
  6 20  1  0
  6 21  1  0
  9 22  1  0
 10 23  1  0
 12 24  1  0
 13 25  1  0
M  CHG  1  16  -1
M  END
$$$$
=
     RDKit          3D

 45 45  0  0  0  0  0  0  0  0999 V2000
   16.3840   15.2760    3.8220 C   0  0  0  0  0  0  0  0  0  0  0  0
   17.2190   14.0700    3.5670 N   0  0  0  0  0  4  0  0  0  0  0  0
   16.5440   13.0120    2.8890 C   0  0  0  0  0  0  0  0  0  0  0  0
   17.2020   11.9980    2.7640 O   0  0  0  0  0  0  0  0  0  0  0  0
   15.2940   13.2520    2.4820 O   0  0  0  0  0  0  0  0  0  0  0  0
   14.3700   12.2010    2.7700 C   0  0  0  0  0  0  0  0  0  0  0  0
   13.0580   12.8280    3.1670 C   0  0  0  0  0  0  0  0  0  0  0  0
   11.8540   12.3590    2.6170 C   0  0  0  0  0  0  0  0  0  0  0  0
   10.6380   12.9480    2.9680 C   0  0  0  0  0  0  0  0  0  0  0  0
   10.6130   14.0160    3.8630 C   0  0  0  0  0  0  0  0  0  0  0  0
   11.8030   14.4970    4.4070 C   0  0  0  0  0  0  0  0  0  0  0  0
   13.0210   13.9090    4.0590 C   0  0  0  0  0  0  0  0  0  0  0  0
   16.2830   15.6910    5.3210 C   0  0  0  0  0  0  0  0  0  0  0  0
   17.0530   16.9790    5.7630 C   0  0  0  0  0  0  0  0  0  0  0  0
   18.4950   16.7150    5.4570 C   0  0  0  0  0  0  0  0  0  0  0  0
   19.5670   17.5020    4.7480 C   0  0  1  0  0  0  0  0  0  0  0  0
   23.1360   18.1370    5.8630 C   0  0  0  0  0  0  0  0  0  0  0  0
   21.9050   18.2860    5.0100 C   0  0  0  0  0  0  0  0  0  0  0  0
   21.9170   18.9160    3.9570 O   0  0  0  0  0  0  0  0  0  0  0  0
   20.7920   17.6700    5.5220 N   0  0  0  0  0  0  0  0  0  0  0  0
   19.7850   16.5270    3.4720 C   0  0  0  0  0  0  0  0  0  0  0  0
   19.9870   15.3190    3.7770 O   0  0  0  0  0  0  0  0  0  0  0  0
   19.6250   17.0530    2.3090 O   0  0  0  0  0  1  0  0  0  0  0  0
   16.8170   16.1177    3.2615 H   0  0  0  0  0  0  0  0  0  0  0  0
   15.3634   15.0220    3.4997 H   0  0  0  0  0  0  0  0  0  0  0  0
   18.0271   14.3540    2.9949 H   0  0  0  0  0  0  0  0  0  0  0  0
   17.4871   13.7004    4.4903 H   0  0  0  0  0  0  0  0  0  0  0  0
   14.2287   11.5736    1.8776 H   0  0  0  0  0  0  0  0  0  0  0  0
   14.7529   11.5691    3.5849 H   0  0  0  0  0  0  0  0  0  0  0  0
   11.8692   11.5213    1.9043 H   0  0  0  0  0  0  0  0  0  0  0  0
    9.6992   12.5690    2.5380 H   0  0  0  0  0  0  0  0  0  0  0  0
    9.6546   14.4793    4.1401 H   0  0  0  0  0  0  0  0  0  0  0  0
   11.7826   15.3413    5.1117 H   0  0  0  0  0  0  0  0  0  0  0  0
   13.9571   14.2964    4.4874 H   0  0  0  0  0  0  0  0  0  0  0  0
   15.2184   15.8479    5.5493 H   0  0  0  0  0  0  0  0  0  0  0  0
   16.7644   14.8709    5.8738 H   0  0  0  0  0  0  0  0  0  0  0  0
   16.6949   17.8525    5.1984 H   0  0  0  0  0  0  0  0  0  0  0  0
   16.8982   17.1982    6.8298 H   0  0  0  0  0  0  0  0  0  0  0  0
   18.9326   16.5338    6.4498 H   0  0  0  0  0  0  0  0  0  0  0  0
   18.3043   16.0189    4.6269 H   0  0  0  0  0  0  0  0  0  0  0  0
   19.2952   18.5447    4.5271 H   0  0  0  0  0  0  0  0  0  0  0  0
   22.8524   18.1713    6.9253 H   0  0  0  0  0  0  0  0  0  0  0  0
   23.6197   17.1737    5.6436 H   0  0  0  0  0  0  0  0  0  0  0  0
   23.8356   18.9570    5.6436 H   0  0  0  0  0  0  0  0  0  0  0  0
   20.8220   17.3131    6.4877 H   0  0  0  0  0  0  0  0  0  0  0  0
  2  1  1  0
  3  2  1  0
  4  3  2  0
  5  3  1  0
  6  5  1  0
  7  6  1  0
  8  7  2  0
  9  8  1  0
 10  9  2  0
 11 10  1  0
 12 11  2  0
 12  7  1  0
 13  1  1  0
 14 13  1  0
 15 14  1  0
 16 15  1  0
 18 17  1  0
 19 18  2  0
 20 16  1  0
 20 18  1  0
 21 16  1  0
 22 21  2  0
 23 21  1  0
  1 24  1  0
  1 25  1  0
  2 26  1  0
  2 27  1  0
  6 28  1  0
  6 29  1  0
  8 30  1  0
  9 31  1  0
 10 32  1  0
 11 33  1  0
 12 34  1  0
 13 35  1  0
 13 36  1  0
 14 37  1  0
 14 38  1  0
 15 39  1  0
 15 40  1  0
 16 41  1  6
 17 42  1  0
 17 43  1  0
 17 44  1  0
 20 45  1  0
M  CHG  2   2   1  23  -1
M  END
$$$$
=
     RDKit          3D

 29 30  0  0  0  0  0  0  0  0999 V2000
   15.5120   15.5480    4.3600 N   0  0  0  0  0  0  0  0  0  0  0  0
   14.1370   15.3460    4.2870 C   0  0  0  0  0  0  0  0  0  0  0  0
   13.5020   14.2220    3.9410 C   0  0  0  0  0  0  0  0  0  0  0  0
   14.3230   13.0410    3.6610 C   0  0  0  0  0  0  0  0  0  0  0  0
   13.8670   11.9080    3.5490 O   0  0  0  0  0  0  0  0  0  0  0  0
   15.7930   13.2610    3.5470 C   0  0  0  0  0  0  0  0  0  0  0  0
   16.3670   14.5240    3.8620 C   0  0  0  0  0  0  0  0  0  0  0  0
   17.7540   14.6730    3.5990 C   0  0  0  0  0  0  0  0  0  0  0  0
   18.4960   15.9800    3.6680 C   0  0  0  0  0  0  0  0  0  0  0  0
   18.5210   13.5560    3.1910 C   0  0  0  0  0  0  0  0  0  0  0  0
   17.9410   12.3150    2.9650 C   0  0  0  0  0  0  0  0  0  0  0  0
   16.5720   12.1720    3.1220 C   0  0  0  0  0  0  0  0  0  0  0  0
   11.9900   14.2090    3.9140 C   0  0  0  0  0  0  0  0  0  0  0  0
   11.4310   15.0510    4.6830 O   0  0  0  0  0  0  0  0  0  0  0  0
   11.4570   13.4430    3.0630 O   0  0  0  0  0  1  0  0  0  0  0  0
   16.4390   15.7930    6.6540 C   0  0  0  0  0  0  0  0  0  0  0  0
   15.9980   16.4990    5.3780 C   0  0  0  0  0  0  0  0  0  0  0  0
   13.5022   16.2072    4.5425 H   0  0  0  0  0  0  0  0  0  0  0  0
   18.6533   16.2572    4.7208 H   0  0  0  0  0  0  0  0  0  0  0  0
   19.4696   15.8758    3.1668 H   0  0  0  0  0  0  0  0  0  0  0  0
   17.9075   16.7626    3.1668 H   0  0  0  0  0  0  0  0  0  0  0  0
   19.6054   13.6741    3.0492 H   0  0  0  0  0  0  0  0  0  0  0  0
   18.5602   11.4567    2.6653 H   0  0  0  0  0  0  0  0  0  0  0  0
   16.0939   11.2035    2.9134 H   0  0  0  0  0  0  0  0  0  0  0  0
   16.0850   16.3598    7.5277 H   0  0  0  0  0  0  0  0  0  0  0  0
   16.0135   14.7789    6.6778 H   0  0  0  0  0  0  0  0  0  0  0  0
   17.5370   15.7306    6.6778 H   0  0  0  0  0  0  0  0  0  0  0  0
   16.8533   17.0544    4.9656 H   0  0  0  0  0  0  0  0  0  0  0  0
   15.1697   17.1763    5.6333 H   0  0  0  0  0  0  0  0  0  0  0  0
  2  1  1  0
  3  2  2  0
  4  3  1  0
  5  4  2  0
  6  4  1  0
  7  6  2  0
  7  1  1  0
  8  7  1  0
  9  8  1  0
 10  8  2  0
 11 10  1  0
 12  6  1  0
 12 11  2  0
 13  3  1  0
 14 13  2  0
 15 13  1  0
 17  1  1  0
 17 16  1  0
  2 18  1  0
  9 19  1  0
  9 20  1  0
  9 21  1  0
 10 22  1  0
 11 23  1  0
 12 24  1  0
 16 25  1  0
 16 26  1  0
 16 27  1  0
 17 28  1  0
 17 29  1  0
M  CHG  1  15  -1
M  END
$$$$
=
     RDKit          3D

 25 24  0  0  0  0  0  0  0  0999 V2000
   19.5630   15.6880    5.1130 C   0  0  0  0  0  0  0  0  0  0  0  0
   19.2650   14.9240    6.4170 C   0  0  0  0  0  0  0  0  0  0  0  0
   19.1320   17.1540    5.3000 C   0  0  0  0  0  0  0  0  0  0  0  0
   18.7110   15.0400    4.0160 C   0  0  0  0  0  0  0  0  0  0  0  0
   19.0880   14.1060    3.3100 O   0  0  0  0  0  0  0  0  0  0  0  0
   17.5510   15.7300    3.8140 O   0  0  0  0  0  0  0  0  0  0  0  0
   15.5800   15.5810    5.2010 C   0  0  0  0  0  0  0  0  0  0  0  0
   16.3460   14.9900    4.0330 C   0  0  0  0  0  0  0  0  0  0  0  0
   21.0760   15.6100    4.8260 C   0  0  0  0  0  0  0  0  0  0  0  0
   21.9720   16.7210    5.3780 C   0  0  0  0  0  0  0  0  0  0  0  0
   22.3500   17.5570    4.5080 O   0  0  0  0  0  0  0  0  0  0  0  0
   22.2260   16.6810    6.6100 O   0  0  0  0  0  1  0  0  0  0  0  0
   19.5131   15.5600    7.2795 H   0  0  0  0  0  0  0  0  0  0  0  0
   18.1978   14.6596    6.4513 H   0  0  0  0  0  0  0  0  0  0  0  0
   19.8713   14.0068    6.4513 H   0  0  0  0  0  0  0  0  0  0  0  0
   19.0649   17.3823    6.3740 H   0  0  0  0  0  0  0  0  0  0  0  0
   19.8733   17.8169    4.8298 H   0  0  0  0  0  0  0  0  0  0  0  0
   18.1499   17.3103    4.8298 H   0  0  0  0  0  0  0  0  0  0  0  0
   16.0272   15.2360    6.1449 H   0  0  0  0  0  0  0  0  0  0  0  0
   15.6273   16.6789    5.1526 H   0  0  0  0  0  0  0  0  0  0  0  0
   14.5300   15.2567    5.1526 H   0  0  0  0  0  0  0  0  0  0  0  0
   16.5970   13.9422    4.2547 H   0  0  0  0  0  0  0  0  0  0  0  0
   15.7216   15.0405    3.1288 H   0  0  0  0  0  0  0  0  0  0  0  0
   21.4392   14.6595    5.2438 H   0  0  0  0  0  0  0  0  0  0  0  0
   21.1532   15.7132    3.7336 H   0  0  0  0  0  0  0  0  0  0  0  0
  2  1  1  0
  3  1  1  0
  4  1  1  0
  5  4  2  0
  6  4  1  0
  8  7  1  0
  8  6  1  0
  9  1  1  0
 10  9  1  0
 11 10  2  0
 12 10  1  0
  2 13  1  0
  2 14  1  0
  2 15  1  0
  3 16  1  0
  3 17  1  0
  3 18  1  0
  7 19  1  0
  7 20  1  0
  7 21  1  0
  8 22  1  0
  8 23  1  0
  9 24  1  0
  9 25  1  0
M  CHG  1  12  -1
M  END
$$$$
=
     RDKit          3D

 61 64  0  0  0  0  0  0  0  0999 V2000
   23.0210   27.7870   17.9280 O   0  0  0  0  0  0  0  0  0  0  0  0
   23.4990   26.9510   17.1740 C   0  0  0  0  0  0  0  0  0  0  0  0
   22.8190   26.2300   16.2510 N   0  0  0  0  0  0  0  0  0  0  0  0
   21.4400   26.5290   15.8060 C   0  0  1  0  0  0  0  0  0  0  0  0
   21.4180   26.9150   14.2900 C   0  0  0  0  0  0  0  0  0  0  0  0
   21.8360   28.0910   14.0530 O   0  0  0  0  0  0  0  0  0  0  0  0
   21.0290   26.0300   13.4790 O   0  0  0  0  0  1  0  0  0  0  0  0
   20.5100   25.3430   16.0440 C   0  0  0  0  0  0  0  0  0  0  0  0
   20.9770   24.4790   17.1950 C   0  0  0  0  0  0  0  0  0  0  0  0
   20.8300   24.7570   18.3780 O   0  0  0  0  0  0  0  0  0  0  0  0
   21.7150   23.4370   16.7170 O   0  0  0  0  0  0  0  0  0  0  0  0
   21.0850   22.1520   16.4670 C   0  0  0  0  0  0  0  0  0  0  0  0
   22.2690   21.1740   16.3170 C   0  0  0  0  0  0  0  0  0  0  0  0
   20.3000   21.7330   17.7270 C   0  0  0  0  0  0  0  0  0  0  0  0
   20.2900   22.0990   15.1580 C   0  0  0  0  0  0  0  0  0  0  0  0
   18.9110   21.8250   15.1270 C   0  0  0  0  0  0  0  0  0  0  0  0
   18.2150   21.7550   13.9160 C   0  0  0  0  0  0  0  0  0  0  0  0
   18.8830   21.9540   12.7120 C   0  0  0  0  0  0  0  0  0  0  0  0
   20.2490   22.2200   12.7170 C   0  0  0  0  0  0  0  0  0  0  0  0
   20.9450   22.2820   13.9260 C   0  0  0  0  0  0  0  0  0  0  0  0
   24.8120   26.6090   17.1400 O   0  0  0  0  0  0  0  0  0  0  0  0
   25.5100   27.1040   15.9890 C   0  0  0  0  0  0  0  0  0  0  0  0
   26.7460   26.2560   15.6720 C   0  0  0  0  0  0  0  0  0  0  0  0
   28.0680   26.8700   16.1190 C   0  0  0  0  0  0  0  0  0  0  0  0
   28.4360   27.3050   17.3830 C   0  0  0  0  0  0  0  0  0  0  0  0
   29.7170   27.8350   17.5490 C   0  0  0  0  0  0  0  0  0  0  0  0
   30.6060   27.9180   16.4650 C   0  0  0  0  0  0  0  0  0  0  0  0
   30.2310   27.4730   15.1940 C   0  0  0  0  0  0  0  0  0  0  0  0
   28.9590   26.9490   15.0260 C   0  0  0  0  0  0  0  0  0  0  0  0
   28.3010   26.4340   13.8430 C   0  0  0  0  0  0  0  0  0  0  0  0
   26.9920   26.0290   14.1850 C   0  0  0  0  0  0  0  0  0  0  0  0
   26.1320   25.4970   13.2370 C   0  0  0  0  0  0  0  0  0  0  0  0
   26.5910   25.3790   11.9230 C   0  0  0  0  0  0  0  0  0  0  0  0
   27.8900   25.7840   11.5770 C   0  0  0  0  0  0  0  0  0  0  0  0
   28.7550   26.3160   12.5390 C   0  0  0  0  0  0  0  0  0  0  0  0
   23.2940   25.4186   15.8304 H   0  0  0  0  0  0  0  0  0  0  0  0
   21.0812   27.3812   16.4018 H   0  0  0  0  0  0  0  0  0  0  0  0
   19.5023   25.7216   16.2701 H   0  0  0  0  0  0  0  0  0  0  0  0
   20.5077   24.7249   15.1341 H   0  0  0  0  0  0  0  0  0  0  0  0
   22.6281   20.8774   17.3135 H   0  0  0  0  0  0  0  0  0  0  0  0
   21.9395   20.2812   15.7653 H   0  0  0  0  0  0  0  0  0  0  0  0
   23.0835   21.6662   15.7653 H   0  0  0  0  0  0  0  0  0  0  0  0
   20.8607   22.0323   18.6248 H   0  0  0  0  0  0  0  0  0  0  0  0
   19.3168   22.2263   17.7274 H   0  0  0  0  0  0  0  0  0  0  0  0
   20.1626   20.6416   17.7274 H   0  0  0  0  0  0  0  0  0  0  0  0
   18.3706   21.6630   16.0713 H   0  0  0  0  0  0  0  0  0  0  0  0
   17.1358   21.5419   13.9155 H   0  0  0  0  0  0  0  0  0  0  0  0
   18.3339   21.9013   11.7603 H   0  0  0  0  0  0  0  0  0  0  0  0
   20.7809   22.3815   11.7678 H   0  0  0  0  0  0  0  0  0  0  0  0
   22.0274   22.4779   13.9151 H   0  0  0  0  0  0  0  0  0  0  0  0
   24.8313   27.0835   15.1236 H   0  0  0  0  0  0  0  0  0  0  0  0
   25.8423   28.1306   16.2029 H   0  0  0  0  0  0  0  0  0  0  0  0
   26.4927   25.3337   16.2153 H   0  0  0  0  0  0  0  0  0  0  0  0
   27.7387   27.2346   18.2308 H   0  0  0  0  0  0  0  0  0  0  0  0
   30.0335   28.1917   18.5403 H   0  0  0  0  0  0  0  0  0  0  0  0
   31.6107   28.3388   16.6181 H   0  0  0  0  0  0  0  0  0  0  0  0
   30.9295   27.5373   14.3466 H   0  0  0  0  0  0  0  0  0  0  0  0
   25.1162   25.1766   13.5118 H   0  0  0  0  0  0  0  0  0  0  0  0
   25.9270   24.9640   11.1504 H   0  0  0  0  0  0  0  0  0  0  0  0
   28.2318   25.6817   10.5365 H   0  0  0  0  0  0  0  0  0  0  0  0
   29.7724   26.6334   12.2666 H   0  0  0  0  0  0  0  0  0  0  0  0
  2  1  2  0
  3  2  1  0
  4  3  1  0
  5  4  1  0
  6  5  2  0
  7  5  1  0
  8  4  1  0
  9  8  1  0
 10  9  2  0
 11  9  1  0
 12 11  1  0
 13 12  1  0
 14 12  1  0
 15 12  1  0
 16 15  2  0
 17 16  1  0
 18 17  2  0
 19 18  1  0
 20 19  2  0
 20 15  1  0
 21  2  1  0
 22 21  1  0
 23 22  1  0
 24 23  1  0
 25 24  2  0
 26 25  1  0
 27 26  2  0
 28 27  1  0
 29 24  1  0
 29 28  2  0
 30 29  1  0
 31 23  1  0
 31 30  2  0
 32 31  1  0
 33 32  2  0
 34 33  1  0
 35 34  2  0
 35 30  1  0
  3 36  1  0
  4 37  1  1
  8 38  1  0
  8 39  1  0
 13 40  1  0
 13 41  1  0
 13 42  1  0
 14 43  1  0
 14 44  1  0
 14 45  1  0
 16 46  1  0
 17 47  1  0
 18 48  1  0
 19 49  1  0
 20 50  1  0
 22 51  1  0
 22 52  1  0
 23 53  1  0
 25 54  1  0
 26 55  1  0
 27 56  1  0
 28 57  1  0
 32 58  1  0
 33 59  1  0
 34 60  1  0
 35 61  1  0
M  CHG  1   7  -1
M  END
$$$$
=
     RDKit          3D

 58 57  0  0  0  0  0  0  0  0999 V2000
   15.8030   12.9840    2.6030 C   0  0  1  0  0  0  0  0  0  0  0  0
   16.8830   12.3520    1.9290 O   0  0  0  0  0  0  0  0  0  0  0  0
   13.9300   11.8770    3.9600 C   0  0  0  0  0  0  0  0  0  0  0  0
   15.1910   11.9470    3.5030 C   0  0  0  0  0  0  0  0  0  0  0  0
   12.3050   13.5710    4.6540 C   0  0  0  0  0  0  0  0  0  0  0  0
   12.8750   12.8270    3.6930 C   0  0  0  0  0  0  0  0  0  0  0  0
   11.2020   14.5580    4.3960 C   0  0  0  0  0  0  0  0  0  0  0  0
   10.0770   13.9230    3.5740 C   0  0  0  0  0  0  0  0  0  0  0  0
    8.7240   13.9220    4.2940 C   0  0  0  0  0  0  0  0  0  0  0  0
    8.4560   14.3560    6.7610 C   0  0  0  0  0  0  0  0  0  0  0  0
    8.7850   13.3180    5.6980 C   0  0  0  0  0  0  0  0  0  0  0  0
   16.2660   14.2390    3.3620 C   0  0  0  0  0  0  0  0  0  0  0  0
   15.3380   15.4700    3.3530 C   0  0  0  0  0  0  0  0  0  0  0  0
   14.9160   15.9830    4.7350 C   0  0  0  0  0  0  0  0  0  0  0  0
   15.5550   15.2360    5.9160 C   0  0  0  0  0  0  0  0  0  0  0  0
   16.7930   15.8870    6.5510 C   0  0  0  0  0  0  0  0  0  0  0  0
   17.2800   17.1970    5.9140 C   0  0  0  0  0  0  0  0  0  0  0  0
   18.4200   17.0000    4.9200 C   0  0  0  0  0  0  0  0  0  0  0  0
   19.2540   15.7460    5.1780 C   0  0  0  0  0  0  0  0  0  0  0  0
   20.7490   16.0240    5.0220 C   0  0  0  0  0  0  0  0  0  0  0  0
   21.4540   16.0740    6.3800 C   0  0  0  0  0  0  0  0  0  0  0  0
   20.9310   15.3730    7.2880 O   0  0  0  0  0  0  0  0  0  0  0  0
   22.4740   16.8260    6.4290 O   0  0  0  0  0  1  0  0  0  0  0  0
   15.0494   13.3511    1.8907 H   0  0  0  0  0  0  0  0  0  0  0  0
   17.5158   11.9817    2.5943 H   0  0  0  0  0  0  0  0  0  0  0  0
   13.6771   11.0164    4.5967 H   0  0  0  0  0  0  0  0  0  0  0  0
   15.8637   11.1404    3.8299 H   0  0  0  0  0  0  0  0  0  0  0  0
   12.6650   13.4516    5.6865 H   0  0  0  0  0  0  0  0  0  0  0  0
   12.5236   12.9459    2.6575 H   0  0  0  0  0  0  0  0  0  0  0  0
   10.7944   14.9013    5.3583 H   0  0  0  0  0  0  0  0  0  0  0  0
   11.6156   15.4044    3.8280 H   0  0  0  0  0  0  0  0  0  0  0  0
    9.9716   14.4850    2.6343 H   0  0  0  0  0  0  0  0  0  0  0  0
   10.3539   12.8726    3.4010 H   0  0  0  0  0  0  0  0  0  0  0  0
    8.3716   14.9608    4.3760 H   0  0  0  0  0  0  0  0  0  0  0  0
    8.0401   13.2974    3.7006 H   0  0  0  0  0  0  0  0  0  0  0  0
    8.5956   13.9155    7.7592 H   0  0  0  0  0  0  0  0  0  0  0  0
    9.1234   15.2228    6.6461 H   0  0  0  0  0  0  0  0  0  0  0  0
    7.4111   14.6800    6.6461 H   0  0  0  0  0  0  0  0  0  0  0  0
    8.0597   12.4938    5.7654 H   0  0  0  0  0  0  0  0  0  0  0  0
    9.8072   12.9521    5.8745 H   0  0  0  0  0  0  0  0  0  0  0  0
   16.4165   13.9497    4.4126 H   0  0  0  0  0  0  0  0  0  0  0  0
   17.1678   14.5691    2.8256 H   0  0  0  0  0  0  0  0  0  0  0  0
   15.8610   16.2860    2.8328 H   0  0  0  0  0  0  0  0  0  0  0  0
   14.4126   15.1495    2.8521 H   0  0  0  0  0  0  0  0  0  0  0  0
   15.1966   17.0441    4.8077 H   0  0  0  0  0  0  0  0  0  0  0  0
   13.8311   15.8180    4.8114 H   0  0  0  0  0  0  0  0  0  0  0  0
   14.7907   15.1359    6.7008 H   0  0  0  0  0  0  0  0  0  0  0  0
   15.9100   14.2821    5.4988 H   0  0  0  0  0  0  0  0  0  0  0  0
   16.5578   16.0950    7.6052 H   0  0  0  0  0  0  0  0  0  0  0  0
   17.6110   15.1673    6.3993 H   0  0  0  0  0  0  0  0  0  0  0  0
   16.4347   17.6639    5.3871 H   0  0  0  0  0  0  0  0  0  0  0  0
   17.6640   17.8304    6.7272 H   0  0  0  0  0  0  0  0  0  0  0  0
   17.9907   16.9291    3.9097 H   0  0  0  0  0  0  0  0  0  0  0  0
   19.0946   17.8617    5.0316 H   0  0  0  0  0  0  0  0  0  0  0  0
   19.0612   15.3932    6.2019 H   0  0  0  0  0  0  0  0  0  0  0  0
   18.9665   14.9830    4.4396 H   0  0  0  0  0  0  0  0  0  0  0  0
   21.1997   15.2256    4.4142 H   0  0  0  0  0  0  0  0  0  0  0  0
   20.8695   17.0024    4.5338 H   0  0  0  0  0  0  0  0  0  0  0  0
  2  1  1  0
  4  3  2  0
  4  1  1  0
  6  5  2  0
  6  3  1  0
  7  5  1  0
  8  7  1  0
  9  8  1  0
 11  9  1  0
 11 10  1  0
 12  1  1  0
 13 12  1  0
 14 13  1  0
 15 14  1  0
 16 15  1  0
 17 16  1  0
 18 17  1  0
 19 18  1  0
 20 19  1  0
 21 20  1  0
 22 21  2  0
 23 21  1  0
  1 24  1  6
  2 25  1  0
  3 26  1  0
  4 27  1  0
  5 28  1  0
  6 29  1  0
  7 30  1  0
  7 31  1  0
  8 32  1  0
  8 33  1  0
  9 34  1  0
  9 35  1  0
 10 36  1  0
 10 37  1  0
 10 38  1  0
 11 39  1  0
 11 40  1  0
 12 41  1  0
 12 42  1  0
 13 43  1  0
 13 44  1  0
 14 45  1  0
 14 46  1  0
 15 47  1  0
 15 48  1  0
 16 49  1  0
 16 50  1  0
 17 51  1  0
 17 52  1  0
 18 53  1  0
 18 54  1  0
 19 55  1  0
 19 56  1  0
 20 57  1  0
 20 58  1  0
M  CHG  1  23  -1
M  END
$$$$
=
     RDKit          3D

 17 18  0  0  0  0  0  0  0  0999 V2000
   19.7680   15.9070    3.8370 C   0  0  2  0  0  0  0  0  0  0  0  0
   20.4780   15.9110    5.1750 C   0  0  2  0  0  0  0  0  0  0  0  0
   19.5800   17.0640    4.7890 C   0  0  1  0  0  0  0  0  0  0  0  0
   20.1830   18.3440    4.4420 O   0  0  0  0  0  0  0  0  0  0  0  0
   21.6010   18.3310    4.2720 C   0  0  0  0  0  0  0  0  0  0  0  0
   22.2740   17.4760    5.3310 C   0  0  0  0  0  0  0  0  0  0  0  0
   21.9150   16.1120    5.1250 O   0  0  0  0  0  0  0  0  0  0  0  0
   17.4610   15.3830    3.8950 O   0  0  0  0  0  1  0  0  0  0  0  0
   18.6420   14.9750    3.6490 C   0  0  0  0  0  0  0  0  0  0  0  0
   18.9300   13.8050    3.2430 O   0  0  0  0  0  0  0  0  0  0  0  0
   20.0854   15.8039    2.7889 H   0  0  0  0  0  0  0  0  0  0  0  0
   20.5323   15.2429    6.0472 H   0  0  0  0  0  0  0  0  0  0  0  0
   18.7166   17.5599    5.2566 H   0  0  0  0  0  0  0  0  0  0  0  0
   21.8393   17.9244    3.2781 H   0  0  0  0  0  0  0  0  0  0  0  0
   21.9726   19.3618    4.3692 H   0  0  0  0  0  0  0  0  0  0  0  0
   23.3658   17.5854    5.2539 H   0  0  0  0  0  0  0  0  0  0  0  0
   21.9479   17.7986    6.3308 H   0  0  0  0  0  0  0  0  0  0  0  0
  2  1  1  0
  3  2  1  0
  3  1  1  0
  4  3  1  0
  5  4  1  0
  6  5  1  0
  7  2  1  0
  7  6  1  0
  9  8  1  0
  9  1  1  0
 10  9  2  0
  1 11  1  6
  2 12  1  1
  3 13  1  1
  5 14  1  0
  5 15  1  0
  6 16  1  0
  6 17  1  0
M  CHG  1   8  -1
M  END
$$$$
=
     RDKit          3D

 51 51  0  0  0  0  0  0  0  0999 V2000
   16.7080   15.1610    4.5440 N   0  0  0  0  0  0  0  0  0  0  0  0
   17.2140   14.2030    3.6930 C   0  0  0  0  0  0  0  0  0  0  0  0
   16.5970   13.5550    2.8650 O   0  0  0  0  0  0  0  0  0  0  0  0
   18.5640   14.0770    3.8760 O   0  0  0  0  0  0  0  0  0  0  0  0
   19.0340   15.2430    4.5810 C   0  0  2  0  0  0  0  0  0  0  0  0
   17.7640   15.7450    5.3230 C   0  0  1  0  0  0  0  0  0  0  0  0
   17.7050   17.2570    5.5290 C   0  0  0  0  0  0  0  0  0  0  0  0
   19.5270   16.2210    3.4980 C   0  0  0  0  0  0  0  0  0  0  0  0
   17.6540   15.1580    6.6080 O   0  0  0  0  0  0  0  0  0  0  0  0
   15.3650   15.7150    4.4020 C   0  0  0  0  0  0  0  0  0  0  0  0
   14.2460   14.8330    4.9610 C   0  0  0  0  0  0  0  0  0  0  0  0
   13.3970   14.1010    3.9180 C   0  0  0  0  0  0  0  0  0  0  0  0
   11.9030   13.9640    4.2380 C   0  0  0  0  0  0  0  0  0  0  0  0
   11.5840   13.5250    5.6640 C   0  0  0  0  0  0  0  0  0  0  0  0
    9.3590   14.1110    5.1810 O   0  0  0  0  0  1  0  0  0  0  0  0
   10.1390   13.7570    6.1090 C   0  0  0  0  0  0  0  0  0  0  0  0
    9.9060   13.5790    7.3360 O   0  0  0  0  0  0  0  0  0  0  0  0
   20.2200   14.8750    5.5070 C   0  0  0  0  0  0  0  0  0  0  0  0
   20.7120   15.9650    6.4710 C   0  0  0  0  0  0  0  0  0  0  0  0
   21.9730   16.6410    5.9970 C   0  0  0  0  0  0  0  0  0  0  0  0
   22.1220   17.9190    5.5950 C   0  0  0  0  0  0  0  0  0  0  0  0
   23.4750   18.4380    5.1880 C   0  0  0  0  0  0  0  0  0  0  0  0
   21.0120   18.9270    5.4970 C   0  0  0  0  0  0  0  0  0  0  0  0
   17.6963   17.4802    6.6061 H   0  0  0  0  0  0  0  0  0  0  0  0
   18.5856   17.7250    5.0647 H   0  0  0  0  0  0  0  0  0  0  0  0
   16.7906   17.6549    5.0647 H   0  0  0  0  0  0  0  0  0  0  0  0
   19.9726   17.1050    3.9776 H   0  0  0  0  0  0  0  0  0  0  0  0
   20.2823   15.7240    2.8715 H   0  0  0  0  0  0  0  0  0  0  0  0
   18.6782   16.5325    2.8715 H   0  0  0  0  0  0  0  0  0  0  0  0
   17.7843   15.8532    7.3006 H   0  0  0  0  0  0  0  0  0  0  0  0
   15.3354   16.6805    4.9283 H   0  0  0  0  0  0  0  0  0  0  0  0
   15.1790   15.8047    3.3216 H   0  0  0  0  0  0  0  0  0  0  0  0
   14.7056   14.0768    5.6144 H   0  0  0  0  0  0  0  0  0  0  0  0
   13.5587   15.5143    5.4840 H   0  0  0  0  0  0  0  0  0  0  0  0
   13.4882   14.6470    2.9675 H   0  0  0  0  0  0  0  0  0  0  0  0
   13.7878   13.0732    3.8882 H   0  0  0  0  0  0  0  0  0  0  0  0
   11.4271   14.9410    4.0677 H   0  0  0  0  0  0  0  0  0  0  0  0
   11.5205   13.1697    3.5802 H   0  0  0  0  0  0  0  0  0  0  0  0
   11.7961   12.4486    5.7442 H   0  0  0  0  0  0  0  0  0  0  0  0
   12.2095   14.1463    6.3218 H   0  0  0  0  0  0  0  0  0  0  0  0
   19.9129   14.0095    6.1125 H   0  0  0  0  0  0  0  0  0  0  0  0
   21.0660   14.6877    4.8294 H   0  0  0  0  0  0  0  0  0  0  0  0
   19.9234   16.7251    6.5735 H   0  0  0  0  0  0  0  0  0  0  0  0
   20.9388   15.4788    7.4313 H   0  0  0  0  0  0  0  0  0  0  0  0
   22.8791   16.0176    5.9767 H   0  0  0  0  0  0  0  0  0  0  0  0
   24.0664   18.6649    6.0873 H   0  0  0  0  0  0  0  0  0  0  0  0
   23.9953   17.6756    4.5896 H   0  0  0  0  0  0  0  0  0  0  0  0
   23.3520   19.3528    4.5896 H   0  0  0  0  0  0  0  0  0  0  0  0
   20.6911   19.2184    6.5080 H   0  0  0  0  0  0  0  0  0  0  0  0
   21.3700   19.8151    4.9556 H   0  0  0  0  0  0  0  0  0  0  0  0
   20.1624   18.4853    4.9556 H   0  0  0  0  0  0  0  0  0  0  0  0
  2  1  1  0
  3  2  2  0
  4  2  1  0
  5  4  1  0
  6  5  1  0
  6  1  1  0
  7  6  1  0
  5  8  1  6
  6  9  1  1
 10  1  1  0
 11 10  1  0
 12 11  1  0
 13 12  1  0
 14 13  1  0
 16 15  1  0
 16 14  1  0
 17 16  2  0
 18  5  1  0
 19 18  1  0
 20 19  1  0
 21 20  2  3
 22 21  1  0
 23 21  1  0
  7 24  1  0
  7 25  1  0
  7 26  1  0
  8 27  1  0
  8 28  1  0
  8 29  1  0
  9 30  1  0
 10 31  1  0
 10 32  1  0
 11 33  1  0
 11 34  1  0
 12 35  1  0
 12 36  1  0
 13 37  1  0
 13 38  1  0
 14 39  1  0
 14 40  1  0
 18 41  1  0
 18 42  1  0
 19 43  1  0
 19 44  1  0
 20 45  1  0
 22 46  1  0
 22 47  1  0
 22 48  1  0
 23 49  1  0
 23 50  1  0
 23 51  1  0
M  CHG  1  15  -1
M  END
$$$$
=
     RDKit          3D

 42 43  0  0  0  0  0  0  0  0999 V2000
   26.9750   25.8750   12.1610 C   0  0  0  0  0  0  0  0  0  0  0  0
   25.4130   25.3590   11.6250 S   0  0  0  0  0  0  0  0  0  0  0  0
   24.6910   26.2350   12.8840 C   0  0  0  0  0  0  0  0  0  0  0  0
   25.4910   26.9160   13.6530 N   0  0  0  0  0  0  0  0  0  0  0  0
   26.8210   26.7020   13.2720 C   0  0  0  0  0  0  0  0  0  0  0  0
   23.3320   26.1080   12.9230 N   0  0  0  0  0  0  0  0  0  0  0  0
   22.5390   26.7340   13.8580 C   0  0  0  0  0  0  0  0  0  0  0  0
   22.9230   27.5130   14.7260 O   0  0  0  0  0  0  0  0  0  0  0  0
   27.8700   27.3410   14.0770 C   0  0  0  0  0  0  0  0  0  0  0  0
   28.0470   28.7330   13.9570 C   0  0  0  0  0  0  0  0  0  0  0  0
   29.0300   29.4040   14.6860 C   0  0  0  0  0  0  0  0  0  0  0  0
   29.8540   28.6890   15.5440 C   0  0  0  0  0  0  0  0  0  0  0  0
   29.7250   27.3070   15.6750 C   0  0  0  0  0  0  0  0  0  0  0  0
   28.7280   26.6430   14.9370 C   0  0  0  0  0  0  0  0  0  0  0  0
   30.5760   26.5490   16.6470 C   0  0  0  0  0  0  0  0  0  0  0  0
   30.7870   29.3480   16.2450 F   0  0  0  0  0  0  0  0  0  0  0  0
   21.0390   26.3770   13.7250 C   0  0  0  0  0  0  0  0  0  0  0  0
   20.2080   27.2080   14.7150 C   0  0  0  0  0  0  0  0  0  0  0  0
   20.5570   26.6930   12.2970 C   0  0  0  0  0  0  0  0  0  0  0  0
   20.8290   24.8770   13.9890 C   0  0  0  0  0  0  0  0  0  0  0  0
   28.1680   25.3730   11.3950 C   0  0  0  0  0  0  0  0  0  0  0  0
   28.9440   23.6360   12.7880 O   0  0  0  0  0  1  0  0  0  0  0  0
   28.4490   23.8890   11.6520 C   0  0  0  0  0  0  0  0  0  0  0  0
   28.2120   23.1070   10.6870 O   0  0  0  0  0  0  0  0  0  0  0  0
   22.8767   25.5130   12.2162 H   0  0  0  0  0  0  0  0  0  0  0  0
   27.3979   29.3024   13.2755 H   0  0  0  0  0  0  0  0  0  0  0  0
   29.1509   30.4923   14.5812 H   0  0  0  0  0  0  0  0  0  0  0  0
   28.6199   25.5529   15.0373 H   0  0  0  0  0  0  0  0  0  0  0  0
   30.2818   26.8111   17.6740 H   0  0  0  0  0  0  0  0  0  0  0  0
   30.4382   25.4690   16.4904 H   0  0  0  0  0  0  0  0  0  0  0  0
   31.6330   26.8103   16.4904 H   0  0  0  0  0  0  0  0  0  0  0  0
   20.4822   26.9338   15.7444 H   0  0  0  0  0  0  0  0  0  0  0  0
   20.4086   28.2776   14.5546 H   0  0  0  0  0  0  0  0  0  0  0  0
   19.1384   27.0074   14.5546 H   0  0  0  0  0  0  0  0  0  0  0  0
   19.6380   27.2955   12.3451 H   0  0  0  0  0  0  0  0  0  0  0  0
   21.3368   27.2557   11.7629 H   0  0  0  0  0  0  0  0  0  0  0  0
   20.3519   25.7535   11.7629 H   0  0  0  0  0  0  0  0  0  0  0  0
   20.8036   24.6956   15.0736 H   0  0  0  0  0  0  0  0  0  0  0  0
   19.8771   24.5556   13.5411 H   0  0  0  0  0  0  0  0  0  0  0  0
   21.6560   24.3066   13.5411 H   0  0  0  0  0  0  0  0  0  0  0  0
   27.9826   25.5158   10.3202 H   0  0  0  0  0  0  0  0  0  0  0  0
   29.0460   25.9427   11.7335 H   0  0  0  0  0  0  0  0  0  0  0  0
  2  1  1  0
  3  2  1  0
  4  3  2  0
  5  4  1  0
  5  1  2  0
  6  3  1  0
  7  6  1  0
  8  7  2  0
  9  5  1  0
 10  9  2  0
 11 10  1  0
 12 11  2  0
 13 12  1  0
 14 13  2  0
 14  9  1  0
 15 13  1  0
 16 12  1  0
 17  7  1  0
 18 17  1  0
 19 17  1  0
 20 17  1  0
 21  1  1  0
 23 22  1  0
 23 21  1  0
 24 23  2  0
  6 25  1  0
 10 26  1  0
 11 27  1  0
 14 28  1  0
 15 29  1  0
 15 30  1  0
 15 31  1  0
 18 32  1  0
 18 33  1  0
 18 34  1  0
 19 35  1  0
 19 36  1  0
 19 37  1  0
 20 38  1  0
 20 39  1  0
 20 40  1  0
 21 41  1  0
 21 42  1  0
M  CHG  1  22  -1
M  END
$$$$
=
     RDKit          3D

 36 37  0  0  0  0  0  0  0  0999 V2000
    7.9300   10.5530    0.9610 C   0  0  0  0  0  0  0  0  0  0  0  0
    6.9810   10.6840    1.7230 O   0  0  0  0  0  0  0  0  0  0  0  0
    9.2090   11.0400    1.1180 N   0  0  0  0  0  0  0  0  0  0  0  0
    9.6800   11.8540    2.1140 C   0  0  0  0  0  0  0  0  0  0  0  0
   10.9580   12.1330    2.1800 N   0  0  0  0  0  0  0  0  0  0  0  0
   11.1860   13.0170    3.2290 C   0  0  0  0  0  0  0  0  0  0  0  0
   10.0620   13.3690    3.9620 C   0  0  0  0  0  0  0  0  0  0  0  0
    8.6910   12.5620    3.2930 S   0  0  0  0  0  0  0  0  0  0  0  0
   12.5500   13.4360    3.5180 C   0  0  0  0  0  0  0  0  0  0  0  0
   12.8340   14.6650    4.1250 C   0  0  0  0  0  0  0  0  0  0  0  0
   14.1560   15.0410    4.3770 C   0  0  0  0  0  0  0  0  0  0  0  0
   15.1930   14.1950    4.0060 C   0  0  0  0  0  0  0  0  0  0  0  0
   14.9350   12.9800    3.3850 C   0  0  0  0  0  0  0  0  0  0  0  0
   13.6140   12.6020    3.1370 C   0  0  0  0  0  0  0  0  0  0  0  0
   16.4620   14.5570    4.2430 F   0  0  0  0  0  0  0  0  0  0  0  0
    7.8140    9.7550   -0.3300 C   0  0  0  0  0  0  0  0  0  0  0  0
    9.3030    9.0200   -2.2240 C   0  0  0  0  0  0  0  0  0  0  0  0
    8.8260   10.1950   -1.3850 C   0  0  0  0  0  0  0  0  0  0  0  0
    9.8950   14.2300    5.1850 C   0  0  0  0  0  0  0  0  0  0  0  0
   10.1020   13.4370    6.4820 C   0  0  0  0  0  0  0  0  0  0  0  0
   11.2960   13.2890    6.8670 O   0  0  0  0  0  0  0  0  0  0  0  0
    9.0360   13.0330    7.0340 O   0  0  0  0  0  1  0  0  0  0  0  0
    9.8927   10.7585    0.4009 H   0  0  0  0  0  0  0  0  0  0  0  0
   12.0112   15.3391    4.4054 H   0  0  0  0  0  0  0  0  0  0  0  0
   14.3741   16.0017    4.8665 H   0  0  0  0  0  0  0  0  0  0  0  0
   15.7648   12.3206    3.0908 H   0  0  0  0  0  0  0  0  0  0  0  0
   13.4049   11.6436    2.6393 H   0  0  0  0  0  0  0  0  0  0  0  0
    7.9813    8.6917   -0.1032 H   0  0  0  0  0  0  0  0  0  0  0  0
    6.8082    9.9290   -0.7400 H   0  0  0  0  0  0  0  0  0  0  0  0
    9.6333    8.2064   -1.5614 H   0  0  0  0  0  0  0  0  0  0  0  0
    8.4782    8.6639   -2.8588 H   0  0  0  0  0  0  0  0  0  0  0  0
   10.1426    9.3396   -2.8588 H   0  0  0  0  0  0  0  0  0  0  0  0
    9.6920   10.6498   -0.8818 H   0  0  0  0  0  0  0  0  0  0  0  0
    8.3360   10.9192   -2.0524 H   0  0  0  0  0  0  0  0  0  0  0  0
   10.6312   15.0464    5.1472 H   0  0  0  0  0  0  0  0  0  0  0  0
    8.8664   14.6197    5.1869 H   0  0  0  0  0  0  0  0  0  0  0  0
  2  1  2  0
  3  1  1  0
  4  3  1  0
  5  4  2  0
  6  5  1  0
  7  6  2  0
  8  7  1  0
  8  4  1  0
  9  6  1  0
 10  9  2  0
 11 10  1  0
 12 11  2  0
 13 12  1  0
 14 13  2  0
 14  9  1  0
 15 12  1  0
 16  1  1  0
 18 17  1  0
 18 16  1  0
 19  7  1  0
 20 19  1  0
 21 20  2  0
 22 20  1  0
  3 23  1  0
 10 24  1  0
 11 25  1  0
 13 26  1  0
 14 27  1  0
 16 28  1  0
 16 29  1  0
 17 30  1  0
 17 31  1  0
 17 32  1  0
 18 33  1  0
 18 34  1  0
 19 35  1  0
 19 36  1  0
M  CHG  1  22  -1
M  END
$$$$
=
     RDKit          3D

 21 22  0  0  0  0  0  0  0  0999 V2000
   18.1800   15.1570    4.5650 C   0  0  1  0  0  0  0  0  0  0  0  0
   17.3040   16.4140    4.8030 C   0  0  0  0  0  0  0  0  0  0  0  0
   15.8580   16.0550    5.2060 C   0  0  0  0  0  0  0  0  0  0  0  0
   15.1330   15.2420    4.1150 C   0  0  0  0  0  0  0  0  0  0  0  0
   16.0480   14.2060    3.5850 C   0  0  0  0  0  0  0  0  0  0  0  0
   17.4160   14.1580    3.7470 C   0  0  0  0  0  0  0  0  0  0  0  0
   17.8080   13.0070    3.0370 C   0  0  0  0  0  0  0  0  0  0  0  0
   16.7670   12.3750    2.4740 N   0  0  0  0  0  0  0  0  0  0  0  0
   15.7130   13.1430    2.8080 N   0  0  0  0  0  0  0  0  0  0  0  0
   20.5550   15.1460    4.6680 O   0  0  0  0  0  1  0  0  0  0  0  0
   19.5610   15.4730    3.9500 C   0  0  0  0  0  0  0  0  0  0  0  0
   19.5630   16.0540    2.8270 O   0  0  0  0  0  0  0  0  0  0  0  0
   18.4044   14.7214    5.5498 H   0  0  0  0  0  0  0  0  0  0  0  0
   17.7565   17.0130    5.6070 H   0  0  0  0  0  0  0  0  0  0  0  0
   17.2595   16.9759    3.8584 H   0  0  0  0  0  0  0  0  0  0  0  0
   15.8855   15.4604    6.1311 H   0  0  0  0  0  0  0  0  0  0  0  0
   15.3048   16.9948    5.3498 H   0  0  0  0  0  0  0  0  0  0  0  0
   14.2434   14.7600    4.5466 H   0  0  0  0  0  0  0  0  0  0  0  0
   14.8257   15.9132    3.2995 H   0  0  0  0  0  0  0  0  0  0  0  0
   18.8500   12.6646    2.9534 H   0  0  0  0  0  0  0  0  0  0  0  0
   14.7489   12.9445    2.5048 H   0  0  0  0  0  0  0  0  0  0  0  0
  2  1  1  0
  3  2  1  0
  4  3  1  0
  5  4  1  0
  6  5  2  0
  6  1  1  0
  7  6  1  0
  8  7  2  0
  9  5  1  0
  9  8  1  0
 11 10  1  0
 11  1  1  0
 12 11  2  0
  1 13  1  1
  2 14  1  0
  2 15  1  0
  3 16  1  0
  3 17  1  0
  4 18  1  0
  4 19  1  0
  7 20  1  0
  9 21  1  0
M  CHG  1  10  -1
M  END
$$$$
=
     RDKit          3D

  8  7  0  0  0  0  0  0  0  0999 V2000
   27.5290   24.8090   -9.1860 O   0  0  0  0  0  1  0  0  0  0  0  0
   27.8740   25.9780   -8.8260 C   0  0  0  0  0  0  0  0  0  0  0  0
   27.5020   27.1070   -9.2460 O   0  0  0  0  0  0  0  0  0  0  0  0
   28.9250   25.9870   -7.6870 C   0  0  0  0  0  0  0  0  0  0  0  0
   28.4460   26.7920   -6.5830 O   0  0  0  0  0  0  0  0  0  0  0  0
   29.0965   24.9572   -7.3404 H   0  0  0  0  0  0  0  0  0  0  0  0
   29.8661   26.4128   -8.0650 H   0  0  0  0  0  0  0  0  0  0  0  0
   28.7008   26.3639   -5.7275 H   0  0  0  0  0  0  0  0  0  0  0  0
  2  1  1  0
  3  2  2  0
  4  2  1  0
  5  4  1  0
  4  6  1  0
  4  7  1  0
  5  8  1  0
M  CHG  1   1  -1
M  END
$$$$
=
     RDKit          3D

 53 55  0  0  0  0  0  0  0  0999 V2000
   24.2040   26.5950   13.5720 C   0  0  1  0  0  0  0  0  0  0  0  0
   22.8120   26.1910   13.1030 C   0  0  0  0  0  0  0  0  0  0  0  0
   22.5160   25.1600   14.1550 C   0  0  0  0  0  0  0  0  0  0  0  0
   23.2190   25.2500   15.2430 N   0  0  0  0  0  0  0  0  0  0  0  0
   24.1510   26.2510   15.0030 N   0  0  0  0  0  0  0  0  0  0  0  0
   24.9240   26.7390   16.0400 C   0  0  0  0  0  0  0  0  0  0  0  0
   24.8970   26.2690   17.1850 O   0  0  0  0  0  0  0  0  0  0  0  0
   27.2780   24.5230   11.2880 C   0  0  0  0  0  0  0  0  0  0  0  0
   27.5450   25.7350   11.9220 C   0  0  0  0  0  0  0  0  0  0  0  0
   26.5510   26.3710   12.6730 C   0  0  0  0  0  0  0  0  0  0  0  0
   25.2700   25.8120   12.8020 C   0  0  0  0  0  0  0  0  0  0  0  0
   25.0170   24.5850   12.1710 C   0  0  0  0  0  0  0  0  0  0  0  0
   26.0130   23.9510   11.4220 C   0  0  0  0  0  0  0  0  0  0  0  0
   28.5330   22.5280   11.0120 C   0  0  0  0  0  0  0  0  0  0  0  0
   28.1530   23.8070   10.5170 O   0  0  0  0  0  0  0  0  0  0  0  0
   21.4510   24.1700   13.9720 C   0  0  0  0  0  0  0  0  0  0  0  0
   21.5060   23.4010   12.8030 C   0  0  0  0  0  0  0  0  0  0  0  0
   20.5240   22.4480   12.5520 C   0  0  0  0  0  0  0  0  0  0  0  0
   19.4790   22.2790   13.4560 C   0  0  0  0  0  0  0  0  0  0  0  0
   19.4130   23.0650   14.6120 C   0  0  0  0  0  0  0  0  0  0  0  0
   20.4070   24.0110   14.8970 C   0  0  0  0  0  0  0  0  0  0  0  0
   20.2650   24.8840   16.0300 N   0  0  0  0  0  0  0  0  0  0  0  0
   20.5640   24.3260   17.5910 S   0  0  0  0  0  6  0  0  0  0  0  0
   21.2580   25.3870   18.2870 O   0  0  0  0  0  0  0  0  0  0  0  0
   21.0810   22.9760   17.5720 O   0  0  0  0  0  0  0  0  0  0  0  0
   18.9060   24.2760   18.2320 C   0  0  0  0  0  0  0  0  0  0  0  0
   25.8470   27.9120   15.7450 C   0  0  0  0  0  0  0  0  0  0  0  0
   27.2540   27.6820   16.2850 C   0  0  0  0  0  0  0  0  0  0  0  0
   27.5490   28.7280   17.3470 C   0  0  0  0  0  0  0  0  0  0  0  0
   28.3810   29.6180   17.0200 O   0  0  0  0  0  0  0  0  0  0  0  0
   26.9720   28.5450   18.4550 O   0  0  0  0  0  1  0  0  0  0  0  0
   24.4683   27.6495   13.4043 H   0  0  0  0  0  0  0  0  0  0  0  0
   22.1032   27.0316   13.1349 H   0  0  0  0  0  0  0  0  0  0  0  0
   22.7393   25.8462   12.0610 H   0  0  0  0  0  0  0  0  0  0  0  0
   28.5410   26.1931   11.8315 H   0  0  0  0  0  0  0  0  0  0  0  0
   26.7771   27.3254   13.1709 H   0  0  0  0  0  0  0  0  0  0  0  0
   24.0259   24.1173   12.2663 H   0  0  0  0  0  0  0  0  0  0  0  0
   25.7964   22.9899   10.9327 H   0  0  0  0  0  0  0  0  0  0  0  0
   28.5282   22.5443   12.1119 H   0  0  0  0  0  0  0  0  0  0  0  0
   27.8213   21.7698   10.6534 H   0  0  0  0  0  0  0  0  0  0  0  0
   29.5432   22.2814   10.6534 H   0  0  0  0  0  0  0  0  0  0  0  0
   22.3249   23.5503   12.0839 H   0  0  0  0  0  0  0  0  0  0  0  0
   20.5731   21.8306   11.6429 H   0  0  0  0  0  0  0  0  0  0  0  0
   18.7023   21.5249   13.2610 H   0  0  0  0  0  0  0  0  0  0  0  0
   18.5694   22.9386   15.3065 H   0  0  0  0  0  0  0  0  0  0  0  0
   19.9770   25.8623   15.8857 H   0  0  0  0  0  0  0  0  0  0  0  0
   18.9378   24.2770   19.3315 H   0  0  0  0  0  0  0  0  0  0  0  0
   18.3502   25.1578   17.8805 H   0  0  0  0  0  0  0  0  0  0  0  0
   18.4044   23.3623   17.8805 H   0  0  0  0  0  0  0  0  0  0  0  0
   25.9036   28.0541   14.6557 H   0  0  0  0  0  0  0  0  0  0  0  0
   25.4340   28.8024   16.2417 H   0  0  0  0  0  0  0  0  0  0  0  0
   27.3203   26.6771   16.7276 H   0  0  0  0  0  0  0  0  0  0  0  0
   27.9856   27.7633   15.4675 H   0  0  0  0  0  0  0  0  0  0  0  0
  2  1  1  0
  3  2  1  0
  4  3  2  0
  5  4  1  0
  5  1  1  0
  6  5  1  0
  7  6  2  0
  9  8  2  0
 10  9  1  0
 11 10  2  0
 11  1  1  0
 12 11  1  0
 13 12  2  0
 13  8  1  0
 15 14  1  0
 15  8  1  0
 16  3  1  0
 17 16  2  0
 18 17  1  0
 19 18  2  0
 20 19  1  0
 21 20  2  0
 21 16  1  0
 22 21  1  0
 23 22  1  0
 24 23  2  0
 25 23  2  0
 26 23  1  0
 27  6  1  0
 28 27  1  0
 29 28  1  0
 30 29  2  0
 31 29  1  0
  1 32  1  1
  2 33  1  0
  2 34  1  0
  9 35  1  0
 10 36  1  0
 12 37  1  0
 13 38  1  0
 14 39  1  0
 14 40  1  0
 14 41  1  0
 17 42  1  0
 18 43  1  0
 19 44  1  0
 20 45  1  0
 22 46  1  0
 26 47  1  0
 26 48  1  0
 26 49  1  0
 27 50  1  0
 27 51  1  0
 28 52  1  0
 28 53  1  0
M  CHG  1  31  -1
M  END
$$$$
=
     RDKit          3D

108112  0  0  0  0  0  0  0  0999 V2000
   20.7990   24.1220   15.4490 C   0  0  1  0  0  0  0  0  0  0  0  0
   21.5400   23.0310   16.2030 C   0  0  0  0  0  0  0  0  0  0  0  0
   20.4330   22.4360   17.0400 C   0  0  0  0  0  0  0  0  0  0  0  0
   19.5730   23.6580   17.4190 C   0  0  1  0  0  0  0  0  0  0  0  0
   19.8610   24.6540   16.4080 O   0  0  0  0  0  0  0  0  0  0  0  0
   25.7200   26.4300   13.4850 C   0  0  2  0  0  0  0  0  0  0  0  0
   24.3000   26.2300   13.6800 O   0  0  0  0  0  0  0  0  0  0  0  0
   23.8440   24.8970   13.9530 C   0  0  2  0  0  0  0  0  0  0  0  0
   22.8370   24.5450   12.8620 C   0  0  0  0  0  0  0  0  0  0  0  0
   21.6120   25.3110   13.3100 C   0  0  0  0  0  0  0  0  0  0  0  0
   21.6890   25.2360   14.8410 C   0  0  2  0  0  0  0  0  0  0  0  0
   23.0660   24.9180   15.1610 O   0  0  0  0  0  0  0  0  0  0  0  0
   21.3860   26.5920   15.4850 C   0  0  0  0  0  0  0  0  0  0  0  0
   24.9420   23.8480   14.1000 C   0  0  0  0  0  0  0  0  0  0  0  0
   25.9540   23.9240   12.9680 C   0  0  1  0  0  0  0  0  0  0  0  0
   26.1940   25.3590   12.4690 C   0  0  2  0  0  0  0  0  0  0  0  0
   27.5500   25.5600   11.8030 C   0  0  0  0  0  0  0  0  0  0  0  0
   26.4350   26.6140   14.8560 C   0  0  2  0  0  0  0  0  0  0  0  0
   25.6110   27.5480   15.7710 C   0  0  0  0  0  0  0  0  0  0  0  0
   27.9020   27.1240   14.7250 C   0  0  1  0  0  0  0  0  0  0  0  0
   28.2130   29.2940   13.7760 C   0  0  0  0  0  0  0  0  0  0  0  0
   27.9170   28.5520   14.9500 O   0  0  0  0  0  0  0  0  0  0  0  0
   28.8500   26.4390   15.7280 C   0  0  2  0  0  0  0  0  0  0  0  0
   30.2810   26.3250   15.1940 C   0  0  0  0  0  0  0  0  0  0  0  0
   28.4040   24.9990   16.0540 C   0  0  0  0  0  0  0  0  0  0  0  0
   27.6580   24.8590   17.0680 O   0  0  0  0  0  0  0  0  0  0  0  0
   28.8480   24.1110   15.2750 O   0  0  0  0  0  1  0  0  0  0  0  0
   27.1420   23.2260   13.3130 O   0  0  0  0  0  0  0  0  0  0  0  0
   18.0620   23.2990   17.4160 C   0  0  2  0  0  0  0  0  0  0  0  0
   17.6850   22.5710   16.2270 O   0  0  0  0  0  0  0  0  0  0  0  0
   16.2470   22.5890   16.1270 C   0  0  1  0  0  0  0  0  0  0  0  0
   15.7640   23.6560   17.1180 C   0  0  0  0  0  0  0  0  0  0  0  0
   17.0240   24.4180   17.5110 C   0  0  2  0  0  0  0  0  0  0  0  0
   17.2390   25.6130   16.5840 C   0  0  0  0  0  0  0  0  0  0  0  0
   15.7600   22.8170   14.6760 C   0  0  2  0  0  0  0  0  0  0  0  0
   14.3260   22.7710   14.5770 O   0  0  0  0  0  0  0  0  0  0  0  0
   13.6690   21.5110   14.4460 C   0  0  2  0  0  0  0  0  0  0  0  0
   14.3020   20.6630   13.3240 C   0  0  1  0  0  0  0  0  0  0  0  0
   15.8180   20.5640   13.5040 C   0  0  0  0  0  0  0  0  0  0  0  0
   16.4160   21.9700   13.5620 C   0  0  2  0  0  0  0  0  0  0  0  0
   17.9390   21.9080   13.5980 C   0  0  0  0  0  0  0  0  0  0  0  0
   13.6860   19.2710   13.1620 C   0  0  0  0  0  0  0  0  0  0  0  0
   12.3390   21.8330   14.0230 O   0  0  0  0  0  0  0  0  0  0  0  0
   13.5010   20.7520   15.7900 C   0  0  0  0  0  0  0  0  0  0  0  0
   12.1320   20.3660   15.9840 O   0  0  0  0  0  0  0  0  0  0  0  0
   20.0260   24.2860   18.7600 C   0  0  0  0  0  0  0  0  0  0  0  0
   20.2140   25.7970   18.7570 C   0  0  0  0  0  0  0  0  0  0  0  0
   20.3205   23.6932   14.5562 H   0  0  0  0  0  0  0  0  0  0  0  0
   21.9675   22.2868   15.5150 H   0  0  0  0  0  0  0  0  0  0  0  0
   22.3978   23.3943   16.7879 H   0  0  0  0  0  0  0  0  0  0  0  0
   19.8479   21.7084   16.4584 H   0  0  0  0  0  0  0  0  0  0  0  0
   20.8064   21.8861   17.9164 H   0  0  0  0  0  0  0  0  0  0  0  0
   26.0082   27.3771   13.0054 H   0  0  0  0  0  0  0  0  0  0  0  0
   23.1821   24.8844   11.8742 H   0  0  0  0  0  0  0  0  0  0  0  0
   22.6676   23.4644   12.7450 H   0  0  0  0  0  0  0  0  0  0  0  0
   21.6514   26.3545   12.9641 H   0  0  0  0  0  0  0  0  0  0  0  0
   20.6754   24.8998   12.9055 H   0  0  0  0  0  0  0  0  0  0  0  0
   21.4086   26.4910   16.5801 H   0  0  0  0  0  0  0  0  0  0  0  0
   22.1424   27.3253   15.1687 H   0  0  0  0  0  0  0  0  0  0  0  0
   20.3894   26.9336   15.1687 H   0  0  0  0  0  0  0  0  0  0  0  0
   25.4636   24.0105   15.0548 H   0  0  0  0  0  0  0  0  0  0  0  0
   24.4706   22.8546   14.0697 H   0  0  0  0  0  0  0  0  0  0  0  0
   25.5243   23.4091   12.0961 H   0  0  0  0  0  0  0  0  0  0  0  0
   25.5214   25.5324   11.6161 H   0  0  0  0  0  0  0  0  0  0  0  0
   28.3245   25.6748   12.5756 H   0  0  0  0  0  0  0  0  0  0  0  0
   27.7838   24.6867   11.1764 H   0  0  0  0  0  0  0  0  0  0  0  0
   27.5204   26.4636   11.1764 H   0  0  0  0  0  0  0  0  0  0  0  0
   26.4978   25.6155   15.3132 H   0  0  0  0  0  0  0  0  0  0  0  0
   25.8217   27.3092   16.8239 H   0  0  0  0  0  0  0  0  0  0  0  0
   25.8859   28.5940   15.5702 H   0  0  0  0  0  0  0  0  0  0  0  0
   24.5389   27.4056   15.5702 H   0  0  0  0  0  0  0  0  0  0  0  0
   28.2601   26.8789   13.7142 H   0  0  0  0  0  0  0  0  0  0  0  0
   28.6071   30.2820   14.0563 H   0  0  0  0  0  0  0  0  0  0  0  0
   28.9648   28.7546   13.1811 H   0  0  0  0  0  0  0  0  0  0  0  0
   27.2964   29.4202   13.1811 H   0  0  0  0  0  0  0  0  0  0  0  0
   28.8161   27.0784   16.6224 H   0  0  0  0  0  0  0  0  0  0  0  0
   30.9840   26.2690   16.0382 H   0  0  0  0  0  0  0  0  0  0  0  0
   30.3720   25.4168   14.5802 H   0  0  0  0  0  0  0  0  0  0  0  0
   30.5147   27.2074   14.5802 H   0  0  0  0  0  0  0  0  0  0  0  0
   27.2225   23.1787   14.2986 H   0  0  0  0  0  0  0  0  0  0  0  0
   18.0210   22.7305   18.3568 H   0  0  0  0  0  0  0  0  0  0  0  0
   15.8141   21.6122   16.3886 H   0  0  0  0  0  0  0  0  0  0  0  0
   15.0371   24.3289   16.6397 H   0  0  0  0  0  0  0  0  0  0  0  0
   15.2555   23.2157   17.9884 H   0  0  0  0  0  0  0  0  0  0  0  0
   17.0317   24.8980   18.5007 H   0  0  0  0  0  0  0  0  0  0  0  0
   17.4020   26.5192   17.1858 H   0  0  0  0  0  0  0  0  0  0  0  0
   18.1188   25.4311   15.9493 H   0  0  0  0  0  0  0  0  0  0  0  0
   16.3509   25.7492   15.9493 H   0  0  0  0  0  0  0  0  0  0  0  0
   16.1211   23.8352   14.4687 H   0  0  0  0  0  0  0  0  0  0  0  0
   14.0770   21.1989   12.3901 H   0  0  0  0  0  0  0  0  0  0  0  0
   16.0423   20.0310   14.4397 H   0  0  0  0  0  0  0  0  0  0  0  0
   16.2533   20.0145   12.6563 H   0  0  0  0  0  0  0  0  0  0  0  0
   16.1754   22.5109   12.6349 H   0  0  0  0  0  0  0  0  0  0  0  0
   18.2808   21.8941   14.6435 H   0  0  0  0  0  0  0  0  0  0  0  0
   18.2810   20.9952   13.0883 H   0  0  0  0  0  0  0  0  0  0  0  0
   18.3540   22.7900   13.0883 H   0  0  0  0  0  0  0  0  0  0  0  0
   13.4940   18.8372   14.1545 H   0  0  0  0  0  0  0  0  0  0  0  0
   12.7393   19.3512   12.6076 H   0  0  0  0  0  0  0  0  0  0  0  0
   14.3820   18.6243   12.6076 H   0  0  0  0  0  0  0  0  0  0  0  0
   11.7647   21.9721   14.8173 H   0  0  0  0  0  0  0  0  0  0  0  0
   14.1324   19.8514   15.7780 H   0  0  0  0  0  0  0  0  0  0  0  0
   13.8023   21.4167   16.6130 H   0  0  0  0  0  0  0  0  0  0  0  0
   11.9387   20.3115   16.9534 H   0  0  0  0  0  0  0  0  0  0  0  0
   19.2683   24.0422   19.5193 H   0  0  0  0  0  0  0  0  0  0  0  0
   21.0202   23.8628   18.9660 H   0  0  0  0  0  0  0  0  0  0  0  0
   20.2595   26.1629   19.7934 H   0  0  0  0  0  0  0  0  0  0  0  0
   21.1504   26.0490   18.2377 H   0  0  0  0  0  0  0  0  0  0  0  0
   19.3679   26.2707   18.2377 H   0  0  0  0  0  0  0  0  0  0  0  0
  2  1  1  0
  3  2  1  0
  4  3  1  0
  5  1  1  0
  5  4  1  0
  7  6  1  0
  8  7  1  6
  9  8  1  0
 10  9  1  0
 11 10  1  0
 11  1  1  0
 12 11  1  0
 12  8  1  0
 11 13  1  1
 14  8  1  0
 15 14  1  0
 16 15  1  0
 16  6  1  0
 17 16  1  0
 18  6  1  0
 19 18  1  0
 20 18  1  0
 22 20  1  0
 22 21  1  0
 23 20  1  0
 24 23  1  0
 25 23  1  0
 26 25  2  0
 27 25  1  0
 28 15  1  0
 29  4  1  0
 30 29  1  0
 31 30  1  0
 32 31  1  0
 33 32  1  0
 33 29  1  0
 34 33  1  0
 35 31  1  0
 36 35  1  0
 37 36  1  0
 38 37  1  0
 39 38  1  0
 40 39  1  0
 40 35  1  0
 41 40  1  0
 42 38  1  0
 37 43  1  6
 44 37  1  0
 45 44  1  0
  4 46  1  1
 47 46  1  0
  1 48  1  6
  2 49  1  0
  2 50  1  0
  3 51  1  0
  3 52  1  0
  6 53  1  6
  9 54  1  0
  9 55  1  0
 10 56  1  0
 10 57  1  0
 13 58  1  0
 13 59  1  0
 13 60  1  0
 14 61  1  0
 14 62  1  0
 15 63  1  6
 16 64  1  6
 17 65  1  0
 17 66  1  0
 17 67  1  0
 18 68  1  1
 19 69  1  0
 19 70  1  0
 19 71  1  0
 20 72  1  6
 21 73  1  0
 21 74  1  0
 21 75  1  0
 23 76  1  1
 24 77  1  0
 24 78  1  0
 24 79  1  0
 28 80  1  0
 29 81  1  1
 31 82  1  1
 32 83  1  0
 32 84  1  0
 33 85  1  1
 34 86  1  0
 34 87  1  0
 34 88  1  0
 35 89  1  6
 38 90  1  6
 39 91  1  0
 39 92  1  0
 40 93  1  6
 41 94  1  0
 41 95  1  0
 41 96  1  0
 42 97  1  0
 42 98  1  0
 42 99  1  0
 43100  1  0
 44101  1  0
 44102  1  0
 45103  1  0
 46104  1  0
 46105  1  0
 47106  1  0
 47107  1  0
 47108  1  0
M  CHG  1  27  -1
M  END
$$$$
=
     RDKit          3D

 24 24  0  0  0  0  0  0  0  0999 V2000
   17.4190   15.9250    5.0670 C   0  0  2  0  0  0  0  0  0  0  0  0
   17.6340   14.8820    4.1060 O   0  0  0  0  0  0  0  0  0  0  0  0
   19.0100   14.5400    3.8970 C   0  0  0  0  0  0  0  0  0  0  0  0
   19.9340   15.7410    4.0370 C   0  0  0  0  0  0  0  0  0  0  0  0
   19.8800   16.2900    5.4660 C   0  0  1  0  0  0  0  0  0  0  0  0
   18.5220   16.0000    6.1240 C   0  0  0  0  0  0  0  0  0  0  0  0
   20.9430   15.7050    6.4110 C   0  0  0  0  0  0  0  0  0  0  0  0
   21.9520   16.4470    6.5850 O   0  0  0  0  0  0  0  0  0  0  0  0
   20.6900   14.5710    6.9010 O   0  0  0  0  0  1  0  0  0  0  0  0
   14.9340   15.4250    4.6460 C   0  0  0  0  0  0  0  0  0  0  0  0
   16.0170   15.7470    5.6680 C   0  0  0  0  0  0  0  0  0  0  0  0
   17.4705   16.9001    4.5605 H   0  0  0  0  0  0  0  0  0  0  0  0
   19.3020   13.7814    4.6381 H   0  0  0  0  0  0  0  0  0  0  0  0
   19.1086   14.1589    2.8698 H   0  0  0  0  0  0  0  0  0  0  0  0
   20.9647   15.4348    3.8047 H   0  0  0  0  0  0  0  0  0  0  0  0
   19.6077   16.5265    3.3395 H   0  0  0  0  0  0  0  0  0  0  0  0
   20.0627   17.3672    5.3385 H   0  0  0  0  0  0  0  0  0  0  0  0
   18.2862   16.8040    6.8367 H   0  0  0  0  0  0  0  0  0  0  0  0
   18.5795   15.0340    6.6470 H   0  0  0  0  0  0  0  0  0  0  0  0
   14.0065   15.1492    5.1692 H   0  0  0  0  0  0  0  0  0  0  0  0
   14.7508   16.3075    4.0155 H   0  0  0  0  0  0  0  0  0  0  0  0
   15.2627   14.5857    4.0155 H   0  0  0  0  0  0  0  0  0  0  0  0
   15.7407   16.6802    6.1806 H   0  0  0  0  0  0  0  0  0  0  0  0
   16.0732   14.8857    6.3500 H   0  0  0  0  0  0  0  0  0  0  0  0
  2  1  1  0
  3  2  1  0
  4  3  1  0
  5  4  1  0
  6  1  1  0
  6  5  1  0
  7  5  1  0
  8  7  2  0
  9  7  1  0
 11 10  1  0
 11  1  1  0
  1 12  1  6
  3 13  1  0
  3 14  1  0
  4 15  1  0
  4 16  1  0
  5 17  1  6
  6 18  1  0
  6 19  1  0
 10 20  1  0
 10 21  1  0
 10 22  1  0
 11 23  1  0
 11 24  1  0
M  CHG  1   9  -1
M  END
$$$$
=
     RDKit          3D

 19 20  0  0  0  0  0  0  0  0999 V2000
   20.5800   16.2810    5.2260 C   0  0  0  0  0  0  0  0  0  0  0  0
   20.5580   17.4280    4.4170 C   0  0  0  0  0  0  0  0  0  0  0  0
   19.7250   17.5010    3.3010 C   0  0  0  0  0  0  0  0  0  0  0  0
   18.9000   16.4230    2.9780 C   0  0  0  0  0  0  0  0  0  0  0  0
   18.8950   15.2590    3.7640 C   0  0  0  0  0  0  0  0  0  0  0  0
   19.7410   15.2030    4.8830 C   0  0  0  0  0  0  0  0  0  0  0  0
   18.0380   14.1240    3.4370 C   0  0  0  0  0  0  0  0  0  0  0  0
   18.3260   12.8520    3.2350 N   0  0  0  0  0  0  0  0  0  0  0  0
   17.1330   12.2100    2.9580 N   0  0  0  0  0  0  0  0  0  0  0  0
   16.2100   13.1380    3.0130 C   0  0  0  0  0  0  0  0  0  0  0  0
   16.6910   14.3730    3.3090 O   0  0  0  0  0  0  0  0  0  0  0  0
   22.5140   16.9620    6.4360 O   0  0  0  0  0  1  0  0  0  0  0  0
   21.4890   16.2090    6.4380 C   0  0  0  0  0  0  0  0  0  0  0  0
   21.1590   15.4030    7.3620 O   0  0  0  0  0  0  0  0  0  0  0  0
   21.2065   18.2807    4.6667 H   0  0  0  0  0  0  0  0  0  0  0  0
   19.7183   18.4066    2.6766 H   0  0  0  0  0  0  0  0  0  0  0  0
   18.2451   16.4856    2.0964 H   0  0  0  0  0  0  0  0  0  0  0  0
   19.7488   14.2965    5.5061 H   0  0  0  0  0  0  0  0  0  0  0  0
   15.1434   12.9355    2.8357 H   0  0  0  0  0  0  0  0  0  0  0  0
  2  1  2  0
  3  2  1  0
  4  3  2  0
  5  4  1  0
  6  5  2  0
  6  1  1  0
  7  5  1  0
  8  7  2  0
  9  8  1  0
 10  9  2  0
 11 10  1  0
 11  7  1  0
 13  1  1  0
 13 12  1  0
 14 13  2  0
  2 15  1  0
  3 16  1  0
  4 17  1  0
  6 18  1  0
 10 19  1  0
M  CHG  1  12  -1
M  END
$$$$
=
     RDKit          3D

 25 26  0  0  0  0  0  0  0  0999 V2000
   15.8670   15.7030    5.5330 C   0  0  0  0  0  0  0  0  0  0  0  0
   17.2760   16.0000    5.5430 N   0  0  0  0  0  0  0  0  0  0  0  0
   18.2680   15.2040    6.0110 C   0  0  0  0  0  0  0  0  0  0  0  0
   19.4330   15.9070    5.8020 C   0  0  0  0  0  0  0  0  0  0  0  0
   19.0440   17.1210    5.1850 C   0  0  0  0  0  0  0  0  0  0  0  0
   17.7000   17.1840    5.0620 N   0  0  0  0  0  0  0  0  0  0  0  0
   19.9360   18.2520    4.7450 C   0  0  2  0  0  0  0  0  0  0  0  0
   20.7880   17.8780    3.5300 C   0  0  0  0  0  0  0  0  0  0  0  0
   22.0690   18.6350    3.7670 C   0  0  0  0  0  0  0  0  0  0  0  0
   22.1970   18.5440    5.2670 C   0  0  0  0  0  0  0  0  0  0  0  0
   20.8730   18.6810    5.7830 O   0  0  0  0  0  0  0  0  0  0  0  0
   20.8780   15.4590    6.1840 C   0  0  0  0  0  0  0  0  0  0  0  0
   21.6110   15.0510    5.2310 O   0  0  0  0  0  0  0  0  0  0  0  0
   21.1930   15.5270    7.4110 O   0  0  0  0  0  1  0  0  0  0  0  0
   15.5012   15.6259    6.5675 H   0  0  0  0  0  0  0  0  0  0  0  0
   15.3265   16.5070    5.0119 H   0  0  0  0  0  0  0  0  0  0  0  0
   15.6970   14.7493    5.0119 H   0  0  0  0  0  0  0  0  0  0  0  0
   18.1642   14.2064    6.4627 H   0  0  0  0  0  0  0  0  0  0  0  0
   19.2352   19.0650    4.5043 H   0  0  0  0  0  0  0  0  0  0  0  0
   20.9705   16.7938    3.4940 H   0  0  0  0  0  0  0  0  0  0  0  0
   20.3087   18.1271    2.5718 H   0  0  0  0  0  0  0  0  0  0  0  0
   22.9194   18.1546    3.2610 H   0  0  0  0  0  0  0  0  0  0  0  0
   22.0610   19.6641    3.3785 H   0  0  0  0  0  0  0  0  0  0  0  0
   22.6214   17.5712    5.5562 H   0  0  0  0  0  0  0  0  0  0  0  0
   22.8665   19.3220    5.6626 H   0  0  0  0  0  0  0  0  0  0  0  0
  2  1  1  0
  3  2  1  0
  4  3  2  0
  5  4  1  0
  6  2  1  0
  6  5  2  0
  7  5  1  0
  8  7  1  0
  9  8  1  0
 10  9  1  0
 11  7  1  0
 11 10  1  0
 12  4  1  0
 13 12  2  0
 14 12  1  0
  1 15  1  0
  1 16  1  0
  1 17  1  0
  3 18  1  0
  7 19  1  6
  8 20  1  0
  8 21  1  0
  9 22  1  0
  9 23  1  0
 10 24  1  0
 10 25  1  0
M  CHG  1  14  -1
M  END
$$$$
=
     RDKit          3D

 45 45  0  0  0  0  0  0  0  0999 V2000
   18.7340   13.9060    3.9180 C   0  0  0  0  0  0  0  0  0  0  0  0
   16.9250   12.0830    2.5410 O   0  0  0  0  0  0  0  0  0  0  0  0
   16.5560   13.1560    2.9990 C   0  0  0  0  0  0  0  0  0  0  0  0
   17.3540   14.1200    3.5240 N   0  0  0  0  0  0  0  0  0  0  0  0
   15.2660   13.5650    3.0580 O   0  0  0  0  0  0  0  0  0  0  0  0
   14.3240   12.4950    2.9810 C   0  0  0  0  0  0  0  0  0  0  0  0
   12.9260   13.0080    3.2490 C   0  0  0  0  0  0  0  0  0  0  0  0
   12.6920   14.0260    4.1850 C   0  0  0  0  0  0  0  0  0  0  0  0
   11.3930   14.4650    4.4490 C   0  0  0  0  0  0  0  0  0  0  0  0
   10.3120   13.8820    3.7910 C   0  0  0  0  0  0  0  0  0  0  0  0
   10.5280   12.8590    2.8690 C   0  0  0  0  0  0  0  0  0  0  0  0
   11.8280   12.4210    2.6040 C   0  0  0  0  0  0  0  0  0  0  0  0
   19.1600   14.7920    5.0970 C   0  0  1  0  0  0  0  0  0  0  0  0
   20.4610   15.4400    4.8540 N   0  0  0  0  0  0  0  0  0  0  0  0
   21.3140   15.8620    5.8150 C   0  0  0  0  0  0  0  0  0  0  0  0
   21.2100   15.6280    7.0080 O   0  0  0  0  0  0  0  0  0  0  0  0
   22.2980   16.5900    5.2370 O   0  0  0  0  0  0  0  0  0  0  0  0
   22.0970   17.9900    4.9230 C   0  0  0  0  0  0  0  0  0  0  0  0
   23.4590   18.6490    5.1930 C   0  0  0  0  0  0  0  0  0  0  0  0
   21.7460   18.1860    3.4430 C   0  0  0  0  0  0  0  0  0  0  0  0
   21.0550   18.6270    5.8490 C   0  0  0  0  0  0  0  0  0  0  0  0
   18.0340   15.8570    5.3210 C   0  0  0  0  0  0  0  0  0  0  0  0
   18.1000   16.8580    4.5410 O   0  0  0  0  0  0  0  0  0  0  0  0
   17.2000   15.6070    6.2400 O   0  0  0  0  0  1  0  0  0  0  0  0
   18.8574   12.8521    4.2078 H   0  0  0  0  0  0  0  0  0  0  0  0
   19.3685   14.1699    3.0591 H   0  0  0  0  0  0  0  0  0  0  0  0
   16.9556   15.0614    3.6505 H   0  0  0  0  0  0  0  0  0  0  0  0
   14.3611   12.0501    1.9757 H   0  0  0  0  0  0  0  0  0  0  0  0
   14.5791   11.7377    3.7370 H   0  0  0  0  0  0  0  0  0  0  0  0
   13.5399   14.4830    4.7162 H   0  0  0  0  0  0  0  0  0  0  0  0
   11.2230   15.2718    5.1771 H   0  0  0  0  0  0  0  0  0  0  0  0
    9.2890   14.2287    3.9989 H   0  0  0  0  0  0  0  0  0  0  0  0
    9.6752   12.3968    2.3503 H   0  0  0  0  0  0  0  0  0  0  0  0
   11.9918   11.6074    1.8820 H   0  0  0  0  0  0  0  0  0  0  0  0
   19.2896   14.1735    5.9973 H   0  0  0  0  0  0  0  0  0  0  0  0
   20.7433   15.5830    3.8738 H   0  0  0  0  0  0  0  0  0  0  0  0
   23.6199   18.7269    6.2784 H   0  0  0  0  0  0  0  0  0  0  0  0
   24.2571   18.0374    4.7469 H   0  0  0  0  0  0  0  0  0  0  0  0
   23.4747   19.6544    4.7469 H   0  0  0  0  0  0  0  0  0  0  0  0
   20.7883   18.7208    3.3610 H   0  0  0  0  0  0  0  0  0  0  0  0
   22.5369   18.7731    2.9532 H   0  0  0  0  0  0  0  0  0  0  0  0
   21.6611   17.2047    2.9532 H   0  0  0  0  0  0  0  0  0  0  0  0
   21.3403   18.4526    6.8969 H   0  0  0  0  0  0  0  0  0  0  0  0
   21.0069   19.7091    5.6573 H   0  0  0  0  0  0  0  0  0  0  0  0
   20.0700   18.1765    5.6573 H   0  0  0  0  0  0  0  0  0  0  0  0
  3  2  2  0
  4  3  1  0
  4  1  1  0
  5  3  1  0
  6  5  1  0
  7  6  1  0
  8  7  2  0
  9  8  1  0
 10  9  2  0
 11 10  1  0
 12 11  2  0
 12  7  1  0
 13  1  1  0
 14 13  1  0
 15 14  1  0
 16 15  2  0
 17 15  1  0
 18 17  1  0
 19 18  1  0
 20 18  1  0
 21 18  1  0
 22 13  1  0
 23 22  2  0
 24 22  1  0
  1 25  1  0
  1 26  1  0
  4 27  1  0
  6 28  1  0
  6 29  1  0
  8 30  1  0
  9 31  1  0
 10 32  1  0
 11 33  1  0
 12 34  1  0
 13 35  1  1
 14 36  1  0
 19 37  1  0
 19 38  1  0
 19 39  1  0
 20 40  1  0
 20 41  1  0
 20 42  1  0
 21 43  1  0
 21 44  1  0
 21 45  1  0
M  CHG  1  24  -1
M  END
$$$$
=
     RDKit          3D

 36 35  0  0  0  0  0  0  0  0999 V2000
   18.5710   15.1840    5.5250 C   0  0  1  0  0  0  0  0  0  0  0  0
   19.7840   15.9400    5.1200 N   0  0  0  0  0  0  0  0  0  0  0  0
   20.9290   16.0040    5.8390 C   0  0  0  0  0  0  0  0  0  0  0  0
   21.0820   15.6230    6.9880 O   0  0  0  0  0  0  0  0  0  0  0  0
   21.8940   16.5600    5.0640 O   0  0  0  0  0  0  0  0  0  0  0  0
   21.9160   17.9870    4.8310 C   0  0  0  0  0  0  0  0  0  0  0  0
   23.3560   18.4120    5.1620 C   0  0  0  0  0  0  0  0  0  0  0  0
   21.6380   18.3210    3.3600 C   0  0  0  0  0  0  0  0  0  0  0  0
   20.9620   18.7260    5.7770 C   0  0  0  0  0  0  0  0  0  0  0  0
   17.4830   16.1700    6.0560 C   0  0  0  0  0  0  0  0  0  0  0  0
   17.6940   17.3920    5.7610 O   0  0  0  0  0  0  0  0  0  0  0  0
   16.5840   15.6760    6.7920 O   0  0  0  0  0  1  0  0  0  0  0  0
   18.0370   14.3910    4.3040 C   0  0  2  0  0  0  0  0  0  0  0  0
   19.1180   14.0680    3.4000 O   0  0  0  0  0  0  0  0  0  0  0  0
   16.9040   15.0540    3.5030 C   0  0  0  0  0  0  0  0  0  0  0  0
   15.6190   14.2270    3.4730 C   0  0  0  0  0  0  0  0  0  0  0  0
   15.7540   12.7650    3.0280 C   0  0  0  0  0  0  0  0  0  0  0  0
   14.9560   11.9660    3.6050 O   0  0  0  0  0  0  0  0  0  0  0  0
   16.6350   12.5020    2.1630 O   0  0  0  0  0  1  0  0  0  0  0  0
   18.8226   14.4794    6.3314 H   0  0  0  0  0  0  0  0  0  0  0  0
   19.7513   16.4527    4.2273 H   0  0  0  0  0  0  0  0  0  0  0  0
   23.4853   18.4502    6.2537 H   0  0  0  0  0  0  0  0  0  0  0  0
   24.0607   17.6835    4.7346 H   0  0  0  0  0  0  0  0  0  0  0  0
   23.5523   19.4064    4.7346 H   0  0  0  0  0  0  0  0  0  0  0  0
   20.9353   19.1653    3.3022 H   0  0  0  0  0  0  0  0  0  0  0  0
   22.5800   18.5932    2.8614 H   0  0  0  0  0  0  0  0  0  0  0  0
   21.1994   17.4440    2.8614 H   0  0  0  0  0  0  0  0  0  0  0  0
   21.2397   18.5109    6.8194 H   0  0  0  0  0  0  0  0  0  0  0  0
   21.0310   19.8087    5.5951 H   0  0  0  0  0  0  0  0  0  0  0  0
   19.9309   18.3886    5.5951 H   0  0  0  0  0  0  0  0  0  0  0  0
   17.5922   13.4908    4.7532 H   0  0  0  0  0  0  0  0  0  0  0  0
   19.9240   13.8272    3.9221 H   0  0  0  0  0  0  0  0  0  0  0  0
   16.6801   16.0302    3.9579 H   0  0  0  0  0  0  0  0  0  0  0  0
   17.2532   15.1502    2.4643 H   0  0  0  0  0  0  0  0  0  0  0  0
   15.1968   14.2292    4.4887 H   0  0  0  0  0  0  0  0  0  0  0  0
   14.9841   14.7046    2.7122 H   0  0  0  0  0  0  0  0  0  0  0  0
  2  1  1  0
  3  2  1  0
  4  3  2  0
  5  3  1  0
  6  5  1  0
  7  6  1  0
  8  6  1  0
  9  6  1  0
 10  1  1  0
 11 10  2  0
 12 10  1  0
 13  1  1  0
 14 13  1  0
 15 13  1  0
 16 15  1  0
 17 16  1  0
 18 17  2  0
 19 17  1  0
  1 20  1  1
  2 21  1  0
  7 22  1  0
  7 23  1  0
  7 24  1  0
  8 25  1  0
  8 26  1  0
  8 27  1  0
  9 28  1  0
  9 29  1  0
  9 30  1  0
 13 31  1  1
 14 32  1  0
 15 33  1  0
 15 34  1  0
 16 35  1  0
 16 36  1  0
M  CHG  2  12  -1  19  -1
M  END
$$$$
=
     RDKit          3D

 27 28  0  0  0  0  0  0  0  0999 V2000
   17.5700   15.5710    4.8310 C   0  0  0  0  0  0  0  0  0  0  0  0
   17.6580   16.9120    4.9240 N   0  0  0  0  0  0  0  0  0  0  0  0
   18.9300   17.1420    5.3300 N   0  0  0  0  0  0  0  0  0  0  0  0
   19.6520   16.0070    5.4990 C   0  0  0  0  0  0  0  0  0  0  0  0
   18.8080   14.9690    5.1850 C   0  0  0  0  0  0  0  0  0  0  0  0
   19.3740   18.5000    5.5360 C   0  0  0  0  0  0  0  0  0  0  0  0
   12.6860   12.9210    3.1690 C   0  0  0  0  0  0  0  0  0  0  0  0
   13.9430   13.6270    3.5800 C   0  0  0  0  0  0  0  0  0  0  0  0
   13.9190   14.5810    4.6030 C   0  0  0  0  0  0  0  0  0  0  0  0
   15.0980   15.2190    5.0090 C   0  0  0  0  0  0  0  0  0  0  0  0
   16.3270   14.9080    4.4120 C   0  0  0  0  0  0  0  0  0  0  0  0
   16.3430   13.9400    3.3970 C   0  0  0  0  0  0  0  0  0  0  0  0
   15.1670   13.3020    2.9890 C   0  0  0  0  0  0  0  0  0  0  0  0
   21.1310   15.9020    5.9520 C   0  0  0  0  0  0  0  0  0  0  0  0
   21.3280   15.7180    7.1890 O   0  0  0  0  0  0  0  0  0  0  0  0
   22.0050   16.0120    5.0410 O   0  0  0  0  0  1  0  0  0  0  0  0
   19.0421   13.8944    5.2037 H   0  0  0  0  0  0  0  0  0  0  0  0
   19.4408   18.7043    6.6148 H   0  0  0  0  0  0  0  0  0  0  0  0
   20.3635   18.6362    5.0751 H   0  0  0  0  0  0  0  0  0  0  0  0
   18.6561   19.1944    5.0751 H   0  0  0  0  0  0  0  0  0  0  0  0
   12.1307   12.6091    4.0658 H   0  0  0  0  0  0  0  0  0  0  0  0
   12.0627   13.6010    2.5698 H   0  0  0  0  0  0  0  0  0  0  0  0
   12.9423   12.0349    2.5698 H   0  0  0  0  0  0  0  0  0  0  0  0
   12.9665   14.8321    5.0925 H   0  0  0  0  0  0  0  0  0  0  0  0
   15.0586   15.9746    5.8075 H   0  0  0  0  0  0  0  0  0  0  0  0
   17.2960   13.6783    2.9140 H   0  0  0  0  0  0  0  0  0  0  0  0
   15.2059   12.5391    2.1975 H   0  0  0  0  0  0  0  0  0  0  0  0
  2  1  2  0
  3  2  1  0
  4  3  1  0
  5  1  1  0
  5  4  2  0
  6  3  1  0
  8  7  1  0
  9  8  2  0
 10  9  1  0
 11 10  2  0
 11  1  1  0
 12 11  1  0
 13 12  2  0
 13  8  1  0
 14  4  1  0
 15 14  2  0
 16 14  1  0
  5 17  1  0
  6 18  1  0
  6 19  1  0
  6 20  1  0
  7 21  1  0
  7 22  1  0
  7 23  1  0
  9 24  1  0
 10 25  1  0
 12 26  1  0
 13 27  1  0
M  CHG  1  16  -1
M  END
$$$$
=
     RDKit          3D

 25 26  0  0  0  0  0  0  0  0999 V2000
   20.2610   17.5570    5.4710 N   0  0  0  0  0  0  0  0  0  0  0  0
   19.2140   17.0820    4.7240 C   0  0  0  0  0  0  0  0  0  0  0  0
   19.0430   17.4050    3.5450 O   0  0  0  0  0  0  0  0  0  0  0  0
   18.2720   16.1410    5.5320 C   0  0  1  0  0  0  0  0  0  0  0  0
   17.0010   16.7720    6.2100 C   0  0  0  0  0  0  0  0  0  0  0  0
   16.1890   15.9240    5.2750 C   0  0  0  0  0  0  0  0  0  0  0  0
   17.2930   15.3940    4.6550 C   0  0  0  0  0  0  0  0  0  0  0  0
   17.1900   14.4940    3.6180 C   0  0  0  0  0  0  0  0  0  0  0  0
   15.9030   14.1310    3.2140 C   0  0  0  0  0  0  0  0  0  0  0  0
   14.7700   14.6720    3.8520 C   0  0  0  0  0  0  0  0  0  0  0  0
   14.9100   15.5860    4.9020 C   0  0  0  0  0  0  0  0  0  0  0  0
   21.3730   18.3600    4.9540 C   0  0  0  0  0  0  0  0  0  0  0  0
   23.7420   18.5890    5.1770 O   0  0  0  0  0  1  0  0  0  0  0  0
   22.7300   17.9620    5.5930 C   0  0  0  0  0  0  0  0  0  0  0  0
   22.6420   17.0420    6.4690 O   0  0  0  0  0  0  0  0  0  0  0  0
   20.2666   17.3315    6.4760 H   0  0  0  0  0  0  0  0  0  0  0  0
   19.0543   15.6709    6.1460 H   0  0  0  0  0  0  0  0  0  0  0  0
   16.8786   16.5311    7.2763 H   0  0  0  0  0  0  0  0  0  0  0  0
   16.8579   17.8599    6.2878 H   0  0  0  0  0  0  0  0  0  0  0  0
   18.0832   14.0785    3.1285 H   0  0  0  0  0  0  0  0  0  0  0  0
   15.7731   13.4151    2.3890 H   0  0  0  0  0  0  0  0  0  0  0  0
   13.7644   14.3728    3.5213 H   0  0  0  0  0  0  0  0  0  0  0  0
   14.0331   16.0162    5.4079 H   0  0  0  0  0  0  0  0  0  0  0  0
   21.4381   18.2157    3.8655 H   0  0  0  0  0  0  0  0  0  0  0  0
   21.1761   19.4122    5.2072 H   0  0  0  0  0  0  0  0  0  0  0  0
  2  1  1  0
  3  2  2  0
  4  2  1  0
  5  4  1  0
  6  5  1  0
  7  6  2  0
  7  4  1  0
  8  7  1  0
  9  8  2  0
 10  9  1  0
 11 10  2  0
 11  6  1  0
 12  1  1  0
 14 12  1  0
 14 13  1  0
 15 14  2  0
  1 16  1  0
  4 17  1  1
  5 18  1  0
  5 19  1  0
  8 20  1  0
  9 21  1  0
 10 22  1  0
 11 23  1  0
 12 24  1  0
 12 25  1  0
M  CHG  1  13  -1
M  END
$$$$
=
     RDKit          3D

 36 38  0  0  0  0  0  0  0  0999 V2000
   18.3870   15.0380    4.7510 N   0  0  0  0  0  0  0  0  0  0  0  0
   17.3810   15.9560    4.9030 C   0  0  0  0  0  0  0  0  0  0  0  0
   17.4230   17.0080    5.5270 O   0  0  0  0  0  0  0  0  0  0  0  0
   16.1640   15.4720    4.1310 C   0  0  1  0  0  0  0  0  0  0  0  0
   16.6890   14.2610    3.5540 N   0  0  0  0  0  0  0  0  0  0  0  0
   17.9930   14.0160    3.9300 C   0  0  0  0  0  0  0  0  0  0  0  0
   18.6580   13.0600    3.5680 O   0  0  0  0  0  0  0  0  0  0  0  0
   15.8340   13.3650    2.8140 C   0  0  0  0  0  0  0  0  0  0  0  0
   14.3880   13.4400    3.2610 C   0  0  0  0  0  0  0  0  0  0  0  0
   13.9720   14.3030    4.2990 C   0  0  0  0  0  0  0  0  0  0  0  0
   14.9780   15.1670    5.0320 C   0  0  0  0  0  0  0  0  0  0  0  0
   12.6280   14.3180    4.6950 C   0  0  0  0  0  0  0  0  0  0  0  0
   11.6950   13.5050    4.0520 C   0  0  0  0  0  0  0  0  0  0  0  0
   12.0970   12.6640    3.0160 C   0  0  0  0  0  0  0  0  0  0  0  0
   13.4360   12.6300    2.6250 C   0  0  0  0  0  0  0  0  0  0  0  0
   19.6690   15.1000    5.4240 C   0  0  0  0  0  0  0  0  0  0  0  0
   20.7600   15.7490    4.5690 C   0  0  0  0  0  0  0  0  0  0  0  0
   20.9400   17.2380    4.8580 C   0  0  0  0  0  0  0  0  0  0  0  0
   22.5720   16.9170    6.5190 O   0  0  0  0  0  1  0  0  0  0  0  0
   22.2820   17.6030    5.4970 C   0  0  0  0  0  0  0  0  0  0  0  0
   22.9320   18.5340    4.9480 O   0  0  0  0  0  0  0  0  0  0  0  0
   15.7710   16.2102    3.4164 H   0  0  0  0  0  0  0  0  0  0  0  0
   15.8873   13.6275    1.7471 H   0  0  0  0  0  0  0  0  0  0  0  0
   16.1872   12.3394    2.9968 H   0  0  0  0  0  0  0  0  0  0  0  0
   14.4972   16.1100    5.3313 H   0  0  0  0  0  0  0  0  0  0  0  0
   15.3332   14.6273    5.9222 H   0  0  0  0  0  0  0  0  0  0  0  0
   12.3072   14.9744    5.5173 H   0  0  0  0  0  0  0  0  0  0  0  0
   10.6401   13.5276    4.3630 H   0  0  0  0  0  0  0  0  0  0  0  0
   11.3588   12.0271    2.5066 H   0  0  0  0  0  0  0  0  0  0  0  0
   13.7481   11.9610    1.8095 H   0  0  0  0  0  0  0  0  0  0  0  0
   19.5524   15.6855    6.3479 H   0  0  0  0  0  0  0  0  0  0  0  0
   19.9833   14.0664    5.6312 H   0  0  0  0  0  0  0  0  0  0  0  0
   21.7125   15.2359    4.7679 H   0  0  0  0  0  0  0  0  0  0  0  0
   20.4531   15.6534    3.5170 H   0  0  0  0  0  0  0  0  0  0  0  0
   20.8516   17.7855    3.9080 H   0  0  0  0  0  0  0  0  0  0  0  0
   20.1622   17.5115    5.5861 H   0  0  0  0  0  0  0  0  0  0  0  0
  2  1  1  0
  3  2  2  0
  4  2  1  0
  5  4  1  0
  6  5  1  0
  6  1  1  0
  7  6  2  0
  8  5  1  0
  9  8  1  0
 10  9  2  0
 11 10  1  0
 11  4  1  0
 12 10  1  0
 13 12  2  0
 14 13  1  0
 15 14  2  0
 15  9  1  0
 16  1  1  0
 17 16  1  0
 18 17  1  0
 20 18  1  0
 20 19  1  0
 21 20  2  0
  4 22  1  6
  8 23  1  0
  8 24  1  0
 11 25  1  0
 11 26  1  0
 12 27  1  0
 13 28  1  0
 14 29  1  0
 15 30  1  0
 16 31  1  0
 16 32  1  0
 17 33  1  0
 17 34  1  0
 18 35  1  0
 18 36  1  0
M  CHG  1  19  -1
M  END
$$$$
=
     RDKit          3D

 48 51  0  0  0  0  0  0  0  0999 V2000
   13.5640   13.8320    3.7010 C   0  0  0  0  0  0  0  0  0  0  0  0
   13.8970   14.9480    4.3870 N   0  0  0  0  0  0  0  0  0  0  0  0
   15.1900   15.2870    4.5210 C   0  0  0  0  0  0  0  0  0  0  0  0
   15.4010   16.4420    5.2460 C   0  0  0  0  0  0  0  0  0  0  0  0
   16.6730   16.9420    5.4910 C   0  0  0  0  0  0  0  0  0  0  0  0
   17.7940   16.2780    5.0070 C   0  0  0  0  0  0  0  0  0  0  0  0
   17.6410   15.0830    4.2540 C   0  0  0  0  0  0  0  0  0  0  0  0
   16.2890   14.5680    3.9930 C   0  0  0  0  0  0  0  0  0  0  0  0
   15.9010   13.4030    3.2570 C   0  0  0  0  0  0  0  0  0  0  0  0
   14.5430   13.0500    3.1200 C   0  0  0  0  0  0  0  0  0  0  0  0
   18.8560   14.4900    3.8200 C   0  0  0  0  0  0  0  0  0  0  0  0
   20.1180   15.0310    4.1000 C   0  0  0  0  0  0  0  0  0  0  0  0
   20.2240   16.1990    4.8330 C   0  0  0  0  0  0  0  0  0  0  0  0
   19.0650   16.8180    5.2850 C   0  0  0  0  0  0  0  0  0  0  0  0
   10.2120   12.2740    2.6920 C   0  0  0  0  0  0  0  0  0  0  0  0
   11.5850   12.5720    2.7440 C   0  0  0  0  0  0  0  0  0  0  0  0
   12.1140   13.5320    3.6260 C   0  0  0  0  0  0  0  0  0  0  0  0
   11.1970   14.1860    4.4700 C   0  0  0  0  0  0  0  0  0  0  0  0
    9.8240   13.9180    4.4140 C   0  0  0  0  0  0  0  0  0  0  0  0
    9.3210   12.9880    3.5020 C   0  0  0  0  0  0  0  0  0  0  0  0
    9.3430   11.7510    0.5510 C   0  0  0  0  0  0  0  0  0  0  0  0
    9.8960   11.2960    1.7810 O   0  0  0  0  0  0  0  0  0  0  0  0
    7.9770   12.7300    3.4520 O   0  0  0  0  0  0  0  0  0  0  0  0
    7.2640   13.0120    4.6830 C   0  0  1  0  0  0  0  0  0  0  0  0
    5.9160   13.6100    4.2970 C   0  0  0  0  0  0  0  0  0  0  0  0
    7.1020   11.6970    5.4960 C   0  0  0  0  0  0  0  0  0  0  0  0
    6.1890   10.9200    5.0800 O   0  0  0  0  0  0  0  0  0  0  0  0
    7.9080   11.5140    6.4560 O   0  0  0  0  0  1  0  0  0  0  0  0
   16.8680   12.4890    2.5840 C   0  0  0  0  0  0  0  0  0  0  0  0
   16.8870   12.5080    1.3150 O   0  0  0  0  0  0  0  0  0  0  0  0
   17.5770   11.7550    3.3400 O   0  0  0  0  0  1  0  0  0  0  0  0
   14.5313   16.9855    5.6437 H   0  0  0  0  0  0  0  0  0  0  0  0
   16.7941   17.8686    6.0713 H   0  0  0  0  0  0  0  0  0  0  0  0
   14.2631   12.1516    2.5503 H   0  0  0  0  0  0  0  0  0  0  0  0
   18.8040   13.5599    3.2350 H   0  0  0  0  0  0  0  0  0  0  0  0
   21.0252   14.5262    3.7364 H   0  0  0  0  0  0  0  0  0  0  0  0
   21.2108   16.6314    5.0548 H   0  0  0  0  0  0  0  0  0  0  0  0
   19.1413   17.7462    5.8703 H   0  0  0  0  0  0  0  0  0  0  0  0
   12.2701   12.0354    2.0711 H   0  0  0  0  0  0  0  0  0  0  0  0
   11.5689   14.9272    5.1927 H   0  0  0  0  0  0  0  0  0  0  0  0
    9.1367   14.4437    5.0932 H   0  0  0  0  0  0  0  0  0  0  0  0
    8.5084   12.4377    0.7559 H   0  0  0  0  0  0  0  0  0  0  0  0
   10.1172   12.2771   -0.0268 H   0  0  0  0  0  0  0  0  0  0  0  0
    8.9759   10.8899   -0.0268 H   0  0  0  0  0  0  0  0  0  0  0  0
    7.8100   13.7241    5.3192 H   0  0  0  0  0  0  0  0  0  0  0  0
    5.3517   13.8603    5.2074 H   0  0  0  0  0  0  0  0  0  0  0  0
    6.0760   14.5216    3.7025 H   0  0  0  0  0  0  0  0  0  0  0  0
    5.3476   12.8796    3.7025 H   0  0  0  0  0  0  0  0  0  0  0  0
  2  1  2  0
  3  2  1  0
  4  3  2  0
  5  4  1  0
  6  5  2  0
  7  6  1  0
  8  3  1  0
  8  7  2  0
  9  8  1  0
 10  9  2  0
 10  1  1  0
 11  7  1  0
 12 11  2  0
 13 12  1  0
 14 13  2  0
 14  6  1  0
 16 15  2  0
 17 16  1  0
 17  1  1  0
 18 17  2  0
 19 18  1  0
 20 19  2  0
 20 15  1  0
 22 21  1  0
 22 15  1  0
 23 20  1  0
 24 23  1  0
 25 24  1  0
 26 24  1  0
 27 26  2  0
 28 26  1  0
 29  9  1  0
 30 29  2  0
 31 29  1  0
  4 32  1  0
  5 33  1  0
 10 34  1  0
 11 35  1  0
 12 36  1  0
 13 37  1  0
 14 38  1  0
 16 39  1  0
 18 40  1  0
 19 41  1  0
 21 42  1  0
 21 43  1  0
 21 44  1  0
 24 45  1  1
 25 46  1  0
 25 47  1  0
 25 48  1  0
M  CHG  2  28  -1  31  -1
M  END
$$$$
=
     RDKit          3D

 16 16  0  0  0  0  0  0  0  0999 V2000
   19.6530   16.7360    3.1500 C   0  0  0  0  0  0  0  0  0  0  0  0
   19.1290   15.5000    3.4940 C   0  0  0  0  0  0  0  0  0  0  0  0
   19.7140   15.1050    4.7230 C   0  0  0  0  0  0  0  0  0  0  0  0
   20.5750   16.1110    5.0920 C   0  0  0  0  0  0  0  0  0  0  0  0
   20.5280   17.0940    4.1470 N   0  0  0  0  0  0  0  0  0  0  0  0
   21.4870   16.2100    6.3490 C   0  0  0  0  0  0  0  0  0  0  0  0
   22.4430   17.0350    6.3090 O   0  0  0  0  0  0  0  0  0  0  0  0
   21.1580   15.4310    7.2940 O   0  0  0  0  0  1  0  0  0  0  0  0
   19.4090   17.6050    1.9760 C   0  0  0  0  0  0  0  0  0  0  0  0
   20.5980   17.6090    1.1970 O   0  0  0  0  0  0  0  0  0  0  0  0
   18.3897   14.9268    2.9154 H   0  0  0  0  0  0  0  0  0  0  0  0
   19.5172   14.1739    5.2746 H   0  0  0  0  0  0  0  0  0  0  0  0
   21.0667   17.9714    4.1765 H   0  0  0  0  0  0  0  0  0  0  0  0
   18.5717   17.2091    1.3825 H   0  0  0  0  0  0  0  0  0  0  0  0
   19.1495   18.6253    2.2947 H   0  0  0  0  0  0  0  0  0  0  0  0
   21.3855   17.6116    1.7969 H   0  0  0  0  0  0  0  0  0  0  0  0
  2  1  2  0
  3  2  1  0
  4  3  2  0
  5  4  1  0
  5  1  1  0
  6  4  1  0
  7  6  2  0
  8  6  1  0
  9  1  1  0
 10  9  1  0
  2 11  1  0
  3 12  1  0
  5 13  1  0
  9 14  1  0
  9 15  1  0
 10 16  1  0
M  CHG  1   8  -1
M  END
$$$$
=
     RDKit          3D

 19 19  0  0  0  0  0  0  0  0999 V2000
   23.7050   18.7330    5.0760 C   0  0  0  0  0  0  0  0  0  0  0  0
   22.5050   17.8370    5.1290 C   0  0  0  0  0  0  0  0  0  0  0  0
   22.3940   17.0000    6.1890 N   0  0  0  0  0  0  0  0  0  0  0  0
   21.3070   16.1980    6.2070 C   0  0  0  0  0  0  0  0  0  0  0  0
   20.3190   16.1870    5.2410 C   0  0  0  0  0  0  0  0  0  0  0  0
   20.4290   17.0490    4.1510 C   0  0  0  0  0  0  0  0  0  0  0  0
   21.5590   17.8850    4.1070 C   0  0  0  0  0  0  0  0  0  0  0  0
   19.4090   17.1240    3.0620 C   0  0  0  0  0  0  0  0  0  0  0  0
   18.1950   17.0950    3.4270 O   0  0  0  0  0  0  0  0  0  0  0  0
   19.8390   17.1770    1.8760 O   0  0  0  0  0  1  0  0  0  0  0  0
   19.2540   15.2270    5.3790 N   0  0  0  0  0  4  0  0  0  0  0  0
   18.4440   15.4050    6.3040 O   0  0  0  0  0  0  0  0  0  0  0  0
   19.3100   14.2190    4.6530 O   0  0  0  0  0  1  0  0  0  0  0  0
   21.3140   15.3770    7.2870 O   0  0  0  0  0  0  0  0  0  0  0  0
   24.0280   18.9742    6.0995 H   0  0  0  0  0  0  0  0  0  0  0  0
   24.5213   18.2216    4.5448 H   0  0  0  0  0  0  0  0  0  0  0  0
   23.4466   19.6609    4.5448 H   0  0  0  0  0  0  0  0  0  0  0  0
   21.6964   18.5782    3.2641 H   0  0  0  0  0  0  0  0  0  0  0  0
   20.5736   14.7345    7.4251 H   0  0  0  0  0  0  0  0  0  0  0  0
  2  1  1  0
  3  2  2  0
  4  3  1  0
  5  4  2  0
  6  5  1  0
  7  6  2  0
  7  2  1  0
  8  6  1  0
  9  8  2  0
 10  8  1  0
 11  5  1  0
 12 11  2  0
 13 11  1  0
 14  4  1  0
  1 15  1  0
  1 16  1  0
  1 17  1  0
  7 18  1  0
 14 19  1  0
M  CHG  3  10  -1  11   1  13  -1
M  END
$$$$
=
     RDKit          3D

 80 82  0  0  0  0  0  0  0  0999 V2000
   19.0390   26.2740   15.6500 C   0  0  0  0  0  0  0  0  0  0  0  0
   17.9200   25.7590   15.5530 O   0  0  0  0  0  0  0  0  0  0  0  0
   19.8160   26.0680   16.7730 N   0  0  0  0  0  0  0  0  0  0  0  0
   19.2730   25.3580   17.9190 C   0  0  0  0  0  0  0  0  0  0  0  0
   20.4280   25.2570   18.9020 C   0  0  0  0  0  0  0  0  0  0  0  0
   21.2600   26.4970   18.5910 C   0  0  0  0  0  0  0  0  0  0  0  0
   21.1360   26.6430   17.0720 C   0  0  1  0  0  0  0  0  0  0  0  0
   22.2890   25.8960   16.3700 C   0  0  0  0  0  0  0  0  0  0  0  0
   22.3470   24.6690   16.3400 O   0  0  0  0  0  0  0  0  0  0  0  0
   23.1730   26.6980   15.6800 N   0  0  0  0  0  0  0  0  0  0  0  0
   24.4400   26.1540   15.1830 C   0  0  2  0  0  0  0  0  0  0  0  0
   25.5630   26.6340   16.1110 C   0  0  0  0  0  0  0  0  0  0  0  0
   26.0110   25.9630   17.0350 O   0  0  0  0  0  0  0  0  0  0  0  0
   26.1670   28.2520   15.7790 S   0  0  0  0  0  0  0  0  0  0  0  0
   27.9400   27.8400   15.7500 C   0  0  0  0  0  0  0  0  0  0  0  0
   28.2930   27.0450   14.5170 C   0  0  0  0  0  0  0  0  0  0  0  0
   28.0550   27.5710   13.2390 C   0  0  0  0  0  0  0  0  0  0  0  0
   28.3890   26.8380   12.0990 C   0  0  0  0  0  0  0  0  0  0  0  0
   28.9550   25.5700   12.2240 C   0  0  0  0  0  0  0  0  0  0  0  0
   29.1890   25.0350   13.4880 C   0  0  0  0  0  0  0  0  0  0  0  0
   28.8600   25.7670   14.6310 C   0  0  0  0  0  0  0  0  0  0  0  0
   24.7170   26.5450   13.7200 C   0  0  0  0  0  0  0  0  0  0  0  0
   25.1430   25.4080   12.8190 C   0  0  0  0  0  0  0  0  0  0  0  0
   25.7300   24.2560   13.3640 C   0  0  0  0  0  0  0  0  0  0  0  0
   26.0900   23.1870   12.5440 C   0  0  0  0  0  0  0  0  0  0  0  0
   25.8680   23.2570   11.1710 C   0  0  0  0  0  0  0  0  0  0  0  0
   25.2920   24.3980   10.6180 C   0  0  0  0  0  0  0  0  0  0  0  0
   24.9340   25.4710   11.4360 C   0  0  0  0  0  0  0  0  0  0  0  0
   19.5850   27.1860   14.5330 C   0  0  2  0  0  0  0  0  0  0  0  0
   18.8450   28.5180   14.5380 C   0  0  0  0  0  0  0  0  0  0  0  0
   20.4180   25.8640   12.6070 C   0  0  0  0  0  0  0  0  0  0  0  0
   21.5660   25.8290   13.0490 O   0  0  0  0  0  0  0  0  0  0  0  0
   19.3900   26.4960   13.2680 N   0  0  0  0  0  0  0  0  0  0  0  0
   19.9910   25.1370   11.3180 C   0  0  2  0  0  0  0  0  0  0  0  0
   19.3770   26.1340   10.3430 C   0  0  0  0  0  0  0  0  0  0  0  0
   20.5610   22.3970   11.4270 O   0  0  0  0  0  0  0  0  0  0  0  0
   19.4400   22.7730   11.7530 C   0  0  0  0  0  0  0  0  0  0  0  0
   19.0350   24.0920   11.6480 N   0  0  0  0  0  0  0  0  0  0  0  0
   18.3430   21.8780   12.2930 C   0  0  0  0  0  0  0  0  0  0  0  0
   18.6650   21.2910   13.6580 C   0  0  0  0  0  0  0  0  0  0  0  0
   18.6050   22.3290   14.7760 C   0  0  0  0  0  0  0  0  0  0  0  0
   17.4770   22.5150   15.3130 O   0  0  0  0  0  0  0  0  0  0  0  0
   19.7110   22.8830   15.0340 O   0  0  0  0  0  1  0  0  0  0  0  0
   18.4369   25.9196   18.3612 H   0  0  0  0  0  0  0  0  0  0  0  0
   18.8772   24.3694   17.6432 H   0  0  0  0  0  0  0  0  0  0  0  0
   20.0651   25.2757   19.9402 H   0  0  0  0  0  0  0  0  0  0  0  0
   20.9967   24.3205   18.8046 H   0  0  0  0  0  0  0  0  0  0  0  0
   20.8543   27.3810   19.1048 H   0  0  0  0  0  0  0  0  0  0  0  0
   22.3033   26.4068   18.9277 H   0  0  0  0  0  0  0  0  0  0  0  0
   21.2101   27.6808   16.7151 H   0  0  0  0  0  0  0  0  0  0  0  0
   22.9412   27.6875   15.5124 H   0  0  0  0  0  0  0  0  0  0  0  0
   24.3842   25.0554   15.1903 H   0  0  0  0  0  0  0  0  0  0  0  0
   28.5254   28.7713   15.7568 H   0  0  0  0  0  0  0  0  0  0  0  0
   28.1717   27.2312   16.6364 H   0  0  0  0  0  0  0  0  0  0  0  0
   27.6021   28.5679   13.1342 H   0  0  0  0  0  0  0  0  0  0  0  0
   28.2054   27.2614   11.1005 H   0  0  0  0  0  0  0  0  0  0  0  0
   29.2165   24.9928   11.3249 H   0  0  0  0  0  0  0  0  0  0  0  0
   29.6339   24.0338   13.5865 H   0  0  0  0  0  0  0  0  0  0  0  0
   29.0467   25.3387   15.6269 H   0  0  0  0  0  0  0  0  0  0  0  0
   23.7969   26.9819   13.3046 H   0  0  0  0  0  0  0  0  0  0  0  0
   25.5637   27.2467   13.7468 H   0  0  0  0  0  0  0  0  0  0  0  0
   25.9078   24.1955   14.4478 H   0  0  0  0  0  0  0  0  0  0  0  0
   26.5493   22.2885   12.9817 H   0  0  0  0  0  0  0  0  0  0  0  0
   26.1472   22.4122   10.5242 H   0  0  0  0  0  0  0  0  0  0  0  0
   25.1186   24.4539    9.5332 H   0  0  0  0  0  0  0  0  0  0  0  0
   24.4850   26.3714   10.9914 H   0  0  0  0  0  0  0  0  0  0  0  0
   20.6533   27.3965   14.6891 H   0  0  0  0  0  0  0  0  0  0  0  0
   18.6686   28.8355   15.5763 H   0  0  0  0  0  0  0  0  0  0  0  0
   19.4512   29.2762   14.0207 H   0  0  0  0  0  0  0  0  0  0  0  0
   17.8810   28.4038   14.0207 H   0  0  0  0  0  0  0  0  0  0  0  0
   18.4481   26.4798   12.8516 H   0  0  0  0  0  0  0  0  0  0  0  0
   20.8705   24.6790   10.8419 H   0  0  0  0  0  0  0  0  0  0  0  0
   18.8813   26.9390   10.9053 H   0  0  0  0  0  0  0  0  0  0  0  0
   20.1680   26.5624    9.7099 H   0  0  0  0  0  0  0  0  0  0  0  0
   18.6385   25.6204    9.7099 H   0  0  0  0  0  0  0  0  0  0  0  0
   18.0467   24.3360   11.8051 H   0  0  0  0  0  0  0  0  0  0  0  0
   17.4190   22.4691   12.3760 H   0  0  0  0  0  0  0  0  0  0  0  0
   18.2344   21.0363   11.5931 H   0  0  0  0  0  0  0  0  0  0  0  0
   17.9392   20.4944   13.8784 H   0  0  0  0  0  0  0  0  0  0  0  0
   19.6942   20.9048   13.6187 H   0  0  0  0  0  0  0  0  0  0  0  0
  2  1  2  0
  3  1  1  0
  4  3  1  0
  5  4  1  0
  6  5  1  0
  7  6  1  0
  7  3  1  0
  8  7  1  0
  9  8  2  0
 10  8  1  0
 11 10  1  0
 12 11  1  0
 13 12  2  0
 14 12  1  0
 15 14  1  0
 16 15  1  0
 17 16  2  0
 18 17  1  0
 19 18  2  0
 20 19  1  0
 21 20  2  0
 21 16  1  0
 22 11  1  0
 23 22  1  0
 24 23  2  0
 25 24  1  0
 26 25  2  0
 27 26  1  0
 28 27  2  0
 28 23  1  0
 29  1  1  0
 30 29  1  0
 32 31  2  0
 33 31  1  0
 33 29  1  0
 34 31  1  0
 35 34  1  0
 37 36  2  0
 38 37  1  0
 38 34  1  0
 39 37  1  0
 40 39  1  0
 41 40  1  0
 42 41  2  0
 43 41  1  0
  4 44  1  0
  4 45  1  0
  5 46  1  0
  5 47  1  0
  6 48  1  0
  6 49  1  0
  7 50  1  1
 10 51  1  0
 11 52  1  6
 15 53  1  0
 15 54  1  0
 17 55  1  0
 18 56  1  0
 19 57  1  0
 20 58  1  0
 21 59  1  0
 22 60  1  0
 22 61  1  0
 24 62  1  0
 25 63  1  0
 26 64  1  0
 27 65  1  0
 28 66  1  0
 29 67  1  1
 30 68  1  0
 30 69  1  0
 30 70  1  0
 33 71  1  0
 34 72  1  6
 35 73  1  0
 35 74  1  0
 35 75  1  0
 38 76  1  0
 39 77  1  0
 39 78  1  0
 40 79  1  0
 40 80  1  0
M  CHG  1  43  -1
M  END
$$$$
=
     RDKit          3D

 32 33  0  0  0  0  0  0  0  0999 V2000
   26.6350   23.8910   13.8160 C   0  0  2  0  0  0  0  0  0  0  0  0
   27.4950   24.4720   14.9080 C   0  0  0  0  0  0  0  0  0  0  0  0
   27.1580   24.6480   16.0700 O   0  0  0  0  0  0  0  0  0  0  0  0
   28.7030   24.7860   14.3000 N   0  0  0  0  0  0  0  0  0  0  0  0
   28.7760   24.4320   12.9710 N   0  0  0  0  0  0  0  0  0  0  0  0
   27.6190   23.9040   12.6770 C   0  0  0  0  0  0  0  0  0  0  0  0
   27.2970   23.3130   11.3300 C   0  0  0  0  0  0  0  0  0  0  0  0
   26.4680   22.3560   11.2860 O   0  0  0  0  0  0  0  0  0  0  0  0
   27.9170   23.8500   10.3600 O   0  0  0  0  0  1  0  0  0  0  0  0
   25.4150   24.7710   13.5410 C   0  0  0  0  0  0  0  0  0  0  0  0
   25.7940   26.1480   12.9990 C   0  0  0  0  0  0  0  0  0  0  0  0
   25.3840   27.1940   13.8710 O   0  0  0  0  0  0  0  0  0  0  0  0
   29.8460   25.3350   14.9910 C   0  0  0  0  0  0  0  0  0  0  0  0
   29.7600   26.8350   15.1500 C   0  0  0  0  0  0  0  0  0  0  0  0
   28.8390   27.5720   14.3930 C   0  0  0  0  0  0  0  0  0  0  0  0
   28.7590   28.9590   14.5270 C   0  0  0  0  0  0  0  0  0  0  0  0
   29.6050   29.6230   15.4140 C   0  0  0  0  0  0  0  0  0  0  0  0
   30.5340   28.9010   16.1620 C   0  0  0  0  0  0  0  0  0  0  0  0
   30.6150   27.5140   16.0280 C   0  0  0  0  0  0  0  0  0  0  0  0
   26.2005   22.9037   14.0315 H   0  0  0  0  0  0  0  0  0  0  0  0
   24.7753   24.2656   12.8025 H   0  0  0  0  0  0  0  0  0  0  0  0
   24.8908   24.9217   14.4963 H   0  0  0  0  0  0  0  0  0  0  0  0
   26.8864   26.1939   12.8780 H   0  0  0  0  0  0  0  0  0  0  0  0
   25.2813   26.2874   12.0358 H   0  0  0  0  0  0  0  0  0  0  0  0
   25.4977   26.9039   14.8107 H   0  0  0  0  0  0  0  0  0  0  0  0
   29.9080   24.8774   15.9894 H   0  0  0  0  0  0  0  0  0  0  0  0
   30.7392   25.1133   14.3885 H   0  0  0  0  0  0  0  0  0  0  0  0
   28.1737   27.0530   13.6874 H   0  0  0  0  0  0  0  0  0  0  0  0
   28.0287   29.5279   13.9329 H   0  0  0  0  0  0  0  0  0  0  0  0
   29.5397   30.7156   15.5236 H   0  0  0  0  0  0  0  0  0  0  0  0
   31.2043   29.4253   16.8590 H   0  0  0  0  0  0  0  0  0  0  0  0
   31.3548   26.9505   16.6155 H   0  0  0  0  0  0  0  0  0  0  0  0
  2  1  1  0
  3  2  2  0
  4  2  1  0
  5  4  1  0
  6  1  1  0
  6  5  2  0
  7  6  1  0
  8  7  2  0
  9  7  1  0
 10  1  1  0
 11 10  1  0
 12 11  1  0
 13  4  1  0
 14 13  1  0
 15 14  2  0
 16 15  1  0
 17 16  2  0
 18 17  1  0
 19 14  1  0
 19 18  2  0
  1 20  1  1
 10 21  1  0
 10 22  1  0
 11 23  1  0
 11 24  1  0
 12 25  1  0
 13 26  1  0
 13 27  1  0
 15 28  1  0
 16 29  1  0
 17 30  1  0
 18 31  1  0
 19 32  1  0
M  CHG  1   9  -1
M  END
$$$$
=
     RDKit          3D

 33 35  0  0  0  0  0  0  0  0999 V2000
   16.1700   13.7310    3.4800 C   0  0  0  0  0  0  0  0  0  0  0  0
   14.7630   13.6510    3.5670 C   0  0  0  0  0  0  0  0  0  0  0  0
   14.0130   12.4950    2.9480 C   0  0  0  0  0  0  0  0  0  0  0  0
   12.5080   12.7330    2.8250 C   0  0  0  0  0  0  0  0  0  0  0  0
   11.9540   13.3000    4.1220 C   0  0  0  0  0  0  0  0  0  0  0  0
   12.5960   14.6510    4.4140 C   0  0  0  0  0  0  0  0  0  0  0  0
   14.0980   14.6420    4.2900 C   0  0  0  0  0  0  0  0  0  0  0  0
   14.7310   15.6880    4.8770 N   0  0  0  0  0  0  0  0  0  0  0  0
   16.0670   15.7620    4.7790 C   0  0  0  0  0  0  0  0  0  0  0  0
   16.8500   14.8150    4.0940 C   0  0  0  0  0  0  0  0  0  0  0  0
   18.2570   14.9920    4.0700 C   0  0  0  0  0  0  0  0  0  0  0  0
   18.8800   16.0760    4.6940 C   0  0  0  0  0  0  0  0  0  0  0  0
   18.0900   17.0010    5.3620 C   0  0  0  0  0  0  0  0  0  0  0  0
   16.7000   16.8330    5.3950 C   0  0  0  0  0  0  0  0  0  0  0  0
   17.7970   12.0180    3.4190 O   0  0  0  0  0  1  0  0  0  0  0  0
   16.9370   12.6650    2.7460 C   0  0  0  0  0  0  0  0  0  0  0  0
   16.6550   12.4970    1.5200 O   0  0  0  0  0  0  0  0  0  0  0  0
   20.2400   16.1010    4.5760 O   0  0  0  0  0  0  0  0  0  0  0  0
   21.0070   15.6890    5.6880 C   0  0  0  0  0  0  0  0  0  0  0  0
   21.3160   16.7300    6.4920 F   0  0  0  0  0  0  0  0  0  0  0  0
   20.3620   14.7450    6.4110 F   0  0  0  0  0  0  0  0  0  0  0  0
   22.1660   15.1470    5.2470 F   0  0  0  0  0  0  0  0  0  0  0  0
   14.4196   12.3165    1.9416 H   0  0  0  0  0  0  0  0  0  0  0  0
   14.1479   11.6308    3.6150 H   0  0  0  0  0  0  0  0  0  0  0  0
   12.3191   13.4451    2.0081 H   0  0  0  0  0  0  0  0  0  0  0  0
   12.0111   11.7747    2.6132 H   0  0  0  0  0  0  0  0  0  0  0  0
   10.8652   13.4261    4.0292 H   0  0  0  0  0  0  0  0  0  0  0  0
   12.1793   12.6066    4.9456 H   0  0  0  0  0  0  0  0  0  0  0  0
   12.1925   15.3888    3.7049 H   0  0  0  0  0  0  0  0  0  0  0  0
   12.3590   14.9030    5.4582 H   0  0  0  0  0  0  0  0  0  0  0  0
   18.8777   14.2522    3.5433 H   0  0  0  0  0  0  0  0  0  0  0  0
   18.5539   17.8630    5.8637 H   0  0  0  0  0  0  0  0  0  0  0  0
   16.0882   17.5759    5.9278 H   0  0  0  0  0  0  0  0  0  0  0  0
  2  1  2  0
  3  2  1  0
  4  3  1  0
  5  4  1  0
  6  5  1  0
  7  6  1  0
  7  2  1  0
  8  7  2  0
  9  8  1  0
 10  9  2  0
 10  1  1  0
 11 10  1  0
 12 11  2  0
 13 12  1  0
 14  9  1  0
 14 13  2  0
 16  1  1  0
 16 15  1  0
 17 16  2  0
 18 12  1  0
 19 18  1  0
 20 19  1  0
 21 19  1  0
 22 19  1  0
  3 23  1  0
  3 24  1  0
  4 25  1  0
  4 26  1  0
  5 27  1  0
  5 28  1  0
  6 29  1  0
  6 30  1  0
 11 31  1  0
 13 32  1  0
 14 33  1  0
M  CHG  1  15  -1
M  END
$$$$
=
     RDKit          3D

 25 24  0  0  0  0  0  0  0  0999 V2000
   18.8550   16.0880    3.2110 C   0  0  2  0  0  0  0  0  0  0  0  0
   20.5280   14.9750    6.5770 S   0  0  0  0  0  0  0  0  0  0  0  0
   20.1440   15.1260    4.8220 C   0  0  0  0  0  0  0  0  0  0  0  0
   19.9200   15.1300    3.6690 N   0  0  0  0  0  0  0  0  0  0  0  0
   19.4180   17.5120    2.9360 C   0  0  0  0  0  0  0  0  0  0  0  0
   19.4850   18.2850    3.9360 O   0  0  0  0  0  0  0  0  0  0  0  0
   19.7720   17.7270    1.7410 O   0  0  0  0  0  1  0  0  0  0  0  0
   17.7040   16.1510    4.2180 C   0  0  0  0  0  0  0  0  0  0  0  0
   16.5920   15.3860    3.7260 O   0  0  0  0  0  0  0  0  0  0  0  0
   15.4270   15.3350    4.5590 C   0  0  0  0  0  0  0  0  0  0  0  0
   14.7820   13.9730    4.2600 C   0  0  0  0  0  0  0  0  0  0  0  0
   14.4210   16.4420    4.2230 C   0  0  0  0  0  0  0  0  0  0  0  0
   15.8120   15.3770    6.0440 C   0  0  0  0  0  0  0  0  0  0  0  0
   18.4688   15.7000    2.2569 H   0  0  0  0  0  0  0  0  0  0  0  0
   18.0366   15.7360    5.1809 H   0  0  0  0  0  0  0  0  0  0  0  0
   17.3954   17.1978    4.3556 H   0  0  0  0  0  0  0  0  0  0  0  0
   14.5417   13.4655    5.2059 H   0  0  0  0  0  0  0  0  0  0  0  0
   13.8595   14.1236    3.6800 H   0  0  0  0  0  0  0  0  0  0  0  0
   15.4830   13.3547    3.6800 H   0  0  0  0  0  0  0  0  0  0  0  0
   14.0275   16.8750    5.1545 H   0  0  0  0  0  0  0  0  0  0  0  0
   14.9215   17.2267    3.6367 H   0  0  0  0  0  0  0  0  0  0  0  0
   13.5921   16.0186    3.6367 H   0  0  0  0  0  0  0  0  0  0  0  0
   14.9064   15.2782    6.6605 H   0  0  0  0  0  0  0  0  0  0  0  0
   16.5002   14.5486    6.2679 H   0  0  0  0  0  0  0  0  0  0  0  0
   16.3054   16.3343    6.2679 H   0  0  0  0  0  0  0  0  0  0  0  0
  3  2  2  0
  4  3  2  0
  4  1  1  0
  5  1  1  0
  6  5  2  0
  7  5  1  0
  8  1  1  0
  9  8  1  0
 10  9  1  0
 11 10  1  0
 12 10  1  0
 13 10  1  0
  1 14  1  6
  8 15  1  0
  8 16  1  0
 11 17  1  0
 11 18  1  0
 11 19  1  0
 12 20  1  0
 12 21  1  0
 12 22  1  0
 13 23  1  0
 13 24  1  0
 13 25  1  0
M  CHG  1   7  -1
M  END
$$$$
=
     RDKit          3D

 29 30  0  0  0  0  0  0  0  0999 V2000
   17.0790   15.9650    4.9230 C   0  0  0  0  0  0  0  0  0  0  0  0
   15.7220   16.0580    4.5950 C   0  0  0  0  0  0  0  0  0  0  0  0
   15.0950   15.0460    3.8570 C   0  0  0  0  0  0  0  0  0  0  0  0
   15.8010   13.9080    3.4310 C   0  0  0  0  0  0  0  0  0  0  0  0
   17.1560   13.8000    3.7680 C   0  0  0  0  0  0  0  0  0  0  0  0
   17.7710   14.8200    4.5000 C   0  0  0  0  0  0  0  0  0  0  0  0
   19.1870   14.6900    4.7500 N   0  0  0  0  0  4  0  0  0  0  0  0
   19.9400   14.8040    3.7650 O   0  0  0  0  0  0  0  0  0  0  0  0
   19.5520   14.4830    5.9140 O   0  0  0  0  0  1  0  0  0  0  0  0
   15.1230   12.8250    2.6160 C   0  0  0  0  0  0  0  0  0  0  0  0
   13.8580   12.7620    2.6830 O   0  0  0  0  0  0  0  0  0  0  0  0
   15.8830   12.0770    1.9290 O   0  0  0  0  0  1  0  0  0  0  0  0
   17.8040   17.2800    5.8980 S   0  0  0  0  0  0  0  0  0  0  0  0
   21.2360   17.9630    4.3190 C   0  0  0  0  0  0  0  0  0  0  0  0
   20.4740   18.2340    3.2780 N   0  0  0  0  0  0  0  0  0  0  0  0
   19.1590   18.0360    3.6510 N   0  0  0  0  0  0  0  0  0  0  0  0
   19.1630   17.6380    4.9000 C   0  0  0  0  0  0  0  0  0  0  0  0
   20.4400   17.6000    5.3700 N   0  0  0  0  0  0  0  0  0  0  0  0
   23.1860   18.2330    5.8320 C   0  0  0  0  0  0  0  0  0  0  0  0
   22.7170   18.0270    4.4020 C   0  0  0  0  0  0  0  0  0  0  0  0
   15.1419   16.9344    4.9199 H   0  0  0  0  0  0  0  0  0  0  0  0
   14.0286   15.1440    3.6058 H   0  0  0  0  0  0  0  0  0  0  0  0
   17.7337   12.9167    3.4582 H   0  0  0  0  0  0  0  0  0  0  0  0
   20.7441   17.3494    6.3216 H   0  0  0  0  0  0  0  0  0  0  0  0
   22.4053   17.8901    6.5269 H   0  0  0  0  0  0  0  0  0  0  0  0
   24.1074   17.6567    6.0023 H   0  0  0  0  0  0  0  0  0  0  0  0
   23.3850   19.3014    6.0023 H   0  0  0  0  0  0  0  0  0  0  0  0
   23.1374   17.0850    4.0201 H   0  0  0  0  0  0  0  0  0  0  0  0
   23.0598   18.8813    3.7999 H   0  0  0  0  0  0  0  0  0  0  0  0
  2  1  2  0
  3  2  1  0
  4  3  2  0
  5  4  1  0
  6  5  2  0
  6  1  1  0
  7  6  1  0
  8  7  2  0
  9  7  1  0
 10  4  1  0
 11 10  2  0
 12 10  1  0
 13  1  1  0
 15 14  2  0
 16 15  1  0
 17 16  2  0
 17 13  1  0
 18 17  1  0
 18 14  1  0
 20 14  1  0
 20 19  1  0
  2 21  1  0
  3 22  1  0
  5 23  1  0
 18 24  1  0
 19 25  1  0
 19 26  1  0
 19 27  1  0
 20 28  1  0
 20 29  1  0
M  CHG  3   7   1   9  -1  12  -1
M  END
$$$$
=
     RDKit          3D

 45 46  0  0  0  0  0  0  0  0999 V2000
   17.3750   12.1340    2.7680 O   0  0  0  0  0  0  0  0  0  0  0  0
   16.4950   12.9140    3.1290 C   0  0  0  0  0  0  0  0  0  0  0  0
   16.6990   14.1920    3.6150 N   0  0  0  0  0  0  0  0  0  0  0  0
   17.9600   14.7870    3.4260 N   0  0  0  0  0  0  0  0  0  0  0  0
   18.2220   15.9400    4.1430 C   0  0  0  0  0  0  0  0  0  0  0  0
   17.3420   16.5470    4.7580 O   0  0  0  0  0  0  0  0  0  0  0  0
   19.6870   16.3880    4.1010 C   0  0  1  0  0  0  0  0  0  0  0  0
   19.7970   17.6850    3.2800 C   0  0  0  0  0  0  0  0  0  0  0  0
   21.2300   18.2040    3.2280 C   0  0  0  0  0  0  0  0  0  0  0  0
   21.7830   18.4210    4.6300 C   0  0  0  0  0  0  0  0  0  0  0  0
   21.6890   17.1520    5.4710 C   0  0  0  0  0  0  0  0  0  0  0  0
   20.2590   16.5900    5.5190 C   0  0  2  0  0  0  0  0  0  0  0  0
   20.3510   15.3110    6.3700 C   0  0  0  0  0  0  0  0  0  0  0  0
   19.6300   14.3470    5.9830 O   0  0  0  0  0  0  0  0  0  0  0  0
   21.1120   15.3830    7.3720 O   0  0  0  0  0  1  0  0  0  0  0  0
   15.0250   12.4960    3.1390 C   0  0  0  0  0  0  0  0  0  0  0  0
   14.2380   13.3550    3.9580 O   0  0  0  0  0  0  0  0  0  0  0  0
   12.8910   13.3700    3.7300 C   0  0  0  0  0  0  0  0  0  0  0  0
   11.9590   14.1970    4.3570 C   0  0  0  0  0  0  0  0  0  0  0  0
   10.6020   14.1070    4.0230 C   0  0  0  0  0  0  0  0  0  0  0  0
   10.1600   13.1820    3.0700 C   0  0  0  0  0  0  0  0  0  0  0  0
   11.1010   12.3650    2.4350 C   0  0  0  0  0  0  0  0  0  0  0  0
   12.4540   12.4580    2.7680 C   0  0  0  0  0  0  0  0  0  0  0  0
    8.7120   13.1120    2.6900 C   0  0  0  0  0  0  0  0  0  0  0  0
   15.9458   14.6967    4.1038 H   0  0  0  0  0  0  0  0  0  0  0  0
   18.6558   14.3824    2.7833 H   0  0  0  0  0  0  0  0  0  0  0  0
   20.2828   15.5974    3.6215 H   0  0  0  0  0  0  0  0  0  0  0  0
   19.4528   17.4870    2.2542 H   0  0  0  0  0  0  0  0  0  0  0  0
   19.1741   18.4505    3.7659 H   0  0  0  0  0  0  0  0  0  0  0  0
   21.8594   17.4706    2.7026 H   0  0  0  0  0  0  0  0  0  0  0  0
   21.2349   19.1670    2.6964 H   0  0  0  0  0  0  0  0  0  0  0  0
   22.8381   18.7228    4.5552 H   0  0  0  0  0  0  0  0  0  0  0  0
   21.1852   19.2041    5.1192 H   0  0  0  0  0  0  0  0  0  0  0  0
   22.3543   16.3904    5.0382 H   0  0  0  0  0  0  0  0  0  0  0  0
   21.9859   17.4063    6.4992 H   0  0  0  0  0  0  0  0  0  0  0  0
   19.5400   17.2826    5.9808 H   0  0  0  0  0  0  0  0  0  0  0  0
   14.6375   12.5312    2.1101 H   0  0  0  0  0  0  0  0  0  0  0  0
   14.9612   11.4777    3.5500 H   0  0  0  0  0  0  0  0  0  0  0  0
   12.2907   14.9214    5.1154 H   0  0  0  0  0  0  0  0  0  0  0  0
    9.8755   14.7705    4.5150 H   0  0  0  0  0  0  0  0  0  0  0  0
   10.7738   11.6458    1.6697 H   0  0  0  0  0  0  0  0  0  0  0  0
   13.1836   11.8052    2.2665 H   0  0  0  0  0  0  0  0  0  0  0  0
    8.0951   13.0822    3.6002 H   0  0  0  0  0  0  0  0  0  0  0  0
    8.4457   13.9983    2.0954 H   0  0  0  0  0  0  0  0  0  0  0  0
    8.5324   12.2041    2.0954 H   0  0  0  0  0  0  0  0  0  0  0  0
  2  1  2  0
  3  2  1  0
  4  3  1  0
  5  4  1  0
  6  5  2  0
  7  5  1  0
  8  7  1  0
  9  8  1  0
 10  9  1  0
 11 10  1  0
 12  7  1  0
 12 11  1  0
 13 12  1  0
 14 13  2  0
 15 13  1  0
 16  2  1  0
 17 16  1  0
 18 17  1  0
 19 18  2  0
 20 19  1  0
 21 20  2  0
 22 21  1  0
 23 22  2  0
 23 18  1  0
 24 21  1  0
  3 25  1  0
  4 26  1  0
  7 27  1  6
  8 28  1  0
  8 29  1  0
  9 30  1  0
  9 31  1  0
 10 32  1  0
 10 33  1  0
 11 34  1  0
 11 35  1  0
 12 36  1  1
 16 37  1  0
 16 38  1  0
 19 39  1  0
 20 40  1  0
 22 41  1  0
 23 42  1  0
 24 43  1  0
 24 44  1  0
 24 45  1  0
M  CHG  1  15  -1
M  END
$$$$
